Name: Albite NaAlSi3O8
Type: Mineral
Class: Silicates
Subclass: Tectosilicates (Framework silicates) (Feldspar Group)
Particle Size: Fine (less than 75 Micrometers)
Sample No.: albite.1
Owner: JHU
Wavelength Range: IR
Origin: Sample from Rutherford, Virginia, USA via the Smithsonian
Description: The sample was a large (2 cm x 2 cm x 2 cm) fragment of
Measurement: Bidirectional reflectance
X Units: Wavelength (micrometers)
Y Units: Reflectance (percent)
wavelength	value
25.0442	2.4648
24.3388	2.4341
23.6719	2.9526
23.0407	2.7532
22.4422	2.9416
21.8741	1.9993
21.334	1.8081
20.8199	2.344
20.33	3.1606
19.8627	3.1489
19.4163	2.8584
18.9896	2.1831
18.5812	2.2659
18.19	2.3555
17.815	2.5601
17.4551	2.4258
17.1094	2.2212
16.7772	2.2119
16.4576	2.0662
16.15	2.0815
15.8537	2.2927
15.568	1.7646
15.2925	2.165
15.0265	2.9319
14.7697	3.2068
14.5214	3.4819
14.2814	3.4045
14.0492	2.738
13.8244	1.8882
13.6067	1.9853
13.3957	1.8013
13.1912	1.7654
12.9929	2.0669
12.8004	1.6931
12.6135	1.8328
12.432	3.1377
12.2557	4.1992
12.0843	4.7891
11.9176	4.9092
11.7555	4.8762
11.5977	4.7275
11.444	4.5112
11.2944	4.3249
11.1487	3.9844
11.0067	3.626
10.8682	3.2566
10.7332	2.8621
10.6015	2.5105
10.473	2.1443
10.3476	1.9636
10.2251	1.9944
10.1056	2.1372
9.98873	2.2229
9.87458	2.1592
9.763	1.9192
9.65392	2.4121
9.54724	2.3232
9.44291	1.8877
9.34082	1.8096
9.24091	1.7295
9.14312	1.7659
9.04739	1.666
8.95363	1.7637
8.8618	1.8599
8.77183	1.9683
8.68368	2.1877
8.59727	2.3586
8.51257	2.4871
8.42951	2.6977
8.34807	3.0403
8.26819	3.323
8.18981	3.5566
8.11292	3.3423
8.03745	2.9458
7.96337	2.396
7.89064	1.6685
7.81924	1.0173
7.74911	0.699
7.68023	0.8
7.61256	1.1492
7.54608	1.666
7.48074	2.1887
7.41653	2.5576
7.35341	2.9221
7.29136	3.3376
7.23034	3.6951
7.17033	4.1531
7.11132	4.6833
7.05327	5.0215
6.99616	5.1543
6.93996	5.3032
6.88467	5.5674
6.83024	5.7136
6.77667	5.6914
6.72393	5.7954
6.67201	5.9631
6.62089	5.9709
6.57054	6.1841
6.52095	6.3242
6.4721	6.572
6.42398	6.8052
6.37657	6.699
6.32986	6.4587
6.28382	6.2803
6.23845	6.0718
6.19373	5.9734
6.14965	6.2168
6.10619	6.5871
6.06334	6.6799
6.02109	6.6826
5.97942	6.8059
5.93832	6.7388
5.89778	6.664
5.8578	6.8132
5.81835	6.7788
5.77943	6.4956
5.74103	6.2639
5.70314	6.1926
5.66574	6.3232
5.62883	6.5915
5.5924	6.4519
5.55644	6.4553
5.52093	7.1367
5.48588	7.7043
5.45127	8.0434
5.41709	8.5373
5.38334	9.2566
5.35	9.6416
5.31708	9.5796
5.28456	9.4055
5.25243	9.2292
5.2207	9.1513
5.18934	9.3991
5.15836	9.7331
5.12775	10.0298
5.09749	10.4787
5.0676	11.0132
5.03805	11.1494
5.00884	11.219
4.97998	11.5693
4.95144	12.511
4.92322	12.426
4.89533	12.0454
4.86775	12.4365
4.84048	12.9543
4.81351	12.9541
4.78684	12.3586
4.76047	12.5
4.73439	12.9292
4.70859	13.2981
4.68306	13.5505
4.65782	13.6941
4.63284	14.0088
4.60814	14.4968
4.58369	14.7771
4.5595	15.021
4.53557	15.2639
4.51188	15.5969
4.48845	15.9802
4.46525	16.2802
4.44229	16.4465
4.41957	16.5564
4.39708	16.697
4.37481	16.8894
4.35277	17.0339
4.33096	17.2292
4.30935	17.4436
4.28797	17.6535
4.26679	17.8254
4.24583	17.968
4.22506	18.1135
4.2045	18.2434
4.18414	18.3132
4.16398	18.3859
4.14401	18.4218
4.12423	18.4453
4.10464	18.4792
4.08523	18.5009
4.066	18.5256
4.04696	18.5324
4.02809	18.5429
4.0094	18.5336
3.99088	18.5263
3.97253	18.52
3.95435	18.551
3.93634	18.5751
3.91848	18.6325
3.90079	18.6481
3.88326	18.6621
3.86589	18.6394
3.84867	18.6481
3.8316	18.6484
3.81468	18.6628
3.79791	18.6687
3.78129	18.6726
3.76482	18.6958
3.74848	18.6811
3.73229	18.6762
3.71624	18.656
3.70032	18.6276
3.68454	18.6147
3.6689	18.5866
3.65338	18.5815
3.638	18.5783
3.62275	18.5405
3.60762	18.5134
3.59262	18.4882
3.57775	18.4384
3.56299	18.3903
3.54836	18.3264
3.53385	18.278
3.51945	18.1779
3.50517	17.9939
3.49101	17.9567
3.47696	17.965
3.46303	17.9355
3.4492	17.8371
3.43549	17.7048
3.42188	17.4797
3.40838	17.4089
3.39499	17.4904
3.38171	17.4763
3.36852	17.4467
3.35544	17.4812
3.34246	17.4379
3.32958	17.3906
3.3168	17.3181
3.30411	17.2446
3.29153	17.1801
3.27903	17.0954
3.26664	17.0473
3.25433	16.9758
3.24212	16.9375
3.23	16.8623
3.21797	16.8051
3.20603	16.7431
3.19418	16.6723
3.18241	16.6279
3.17074	16.5664
3.15914	16.4707
3.14763	16.4025
3.13621	16.3086
3.12487	16.2624
3.11361	16.1933
3.10243	16.1254
3.09133	16.0727
3.0803	16.0141
3.06936	15.9594
3.0585	15.8899
3.04771	15.8706
3.037	15.8408
3.02636	15.7744
3.0158	15.7236
3.00531	15.6452
2.99489	15.5971
2.98454	15.5488
2.97427	15.477
2.96407	15.4582
2.95393	15.4309
2.94387	15.4223
2.93387	15.4028
2.92394	15.3781
2.91408	15.4008
2.90429	15.3623
2.89456	15.343
2.88489	15.3061
2.87529	15.2717
2.86576	15.2583
2.85628	15.1796
2.84687	15.0034
2.83752	15.4555
2.82823	15.5654
2.81901	15.6276
2.80984	15.6528
2.80073	15.6801
2.79168	15.7387
2.78269	15.7983
2.77376	15.9443
2.76488	16.1455
2.75606	16.3764
2.7473	16.7617
2.73859	17.0517
2.72994	17.3955
2.72134	17.6835
2.7128	18.0161
2.70431	18.184
2.69587	18.3574
2.68748	18.4418
2.67915	18.5131
2.67087	18.6333
2.66264	18.894
2.65446	18.9262
2.64633	18.9599
2.63825	18.9301
2.63021	18.9003
2.62223	18.9165
2.6143	18.9106
2.60641	18.8813
2.59857	18.8906
2.59078	18.9104
2.58304	18.8652
2.57534	18.832
2.56768	18.7983
2.56008	18.7587
2.55251	18.7609
2.54499	18.7851
2.53752	18.7578
2.53009	18.725
2.5227	18.6447
2.51536	18.6967
2.50806	18.6904
2.5008	18.6176
2.49358	18.6088
2.4864	18.5852
2.47927	18.6127
2.47218	18.5888
2.46512	18.5087
2.45811	18.5529
2.45114	18.5312
2.4442	18.4858
2.43731	18.4697
2.43045	18.4406
2.42363	18.4628
2.41685	18.4416
2.41011	18.4326
2.40341	18.4335
2.39674	18.4182
2.39011	18.3645
2.38352	18.3605
2.37696	18.3501
2.37044	18.3369
2.36395	18.343
2.35751	18.2861
2.35109	18.3078
2.34471	18.2512
2.33836	18.215
2.33205	18.1713
2.32578	18.1884
2.31953	18.2121
2.31332	18.1933
2.30714	18.1621
2.49839	18.6281
3.08948	7.0312
3.07848	7.0027
2.45811	11.4223
3.44462	7.5537
3.43094	7.5166
3.41737	7.4673
2.29794	18.1694
2.29185	18.1626
2.28578	18.1127
2.27975	18.0883
2.27375	18.104
2.26778	18.0615
2.26185	18.0507
2.25594	18.0566
2.25007	18.06
2.24422	18.0498
2.23841	18.0517
2.23262	18.0556
2.22687	18.0283
2.22115	18.0546
2.21545	18.0903
2.20978	17.9848
2.20415	18.0327
2.19854	17.997
2.19296	18.0605
2.18741	18.0629
2.18188	18.0361
2.17639	18.0673
2.17092	18.1372
2.16548	18.125
2.16006	18.1386
2.15468	18.1572
2.14932	18.1777
2.14398	18.1386
2.13868	18.145
2.1334	18.1953
2.12814	18.2094
2.12291	18.2343
2.11771	18.1875
2.11253	18.2343
2.10738	18.2343
2.10225	18.2812
2.09715	18.3339
2.09207	18.3398
2.08702	18.3808
2.08199	18.2851
