Name: Augite-hypersthene Andesite
Type: Rocks
Class: Igneous
Subclass: Intermediate
Particle Size: Solid
Sample No.: Andesite.H1
Owner: JHU
Origin: Saipan, via Smithsonian (Cat. Number. NMNH 108982-135)
Description: The sample is about 4 x 3 cm, brown on the weathered surface
Measurement: Directional (10 degree) hemispherical reflectance
X Units: Wavelength (micrometers)
Y Units: Reflectance (percent)
wavelength	value
14.0112	1.8956
13.7147	3.113
13.4304	2.6102
13.1577	3.4842
12.8959	3.5049
12.6443	3.9
12.4023	3.8213
12.1694	4.4538
11.945	5.2444
11.7289	6.1807
11.5203	7.433
11.3191	8.5486
11.1248	9.1863
10.937	9.9084
10.7555	10.9483
10.5799	11.4468
10.4099	11.3631
10.2454	11.1682
10.0859	11.129
9.9313	10.8054
9.7814	10.7343
9.636	10.6732
9.4948	10.7486
9.3577	11.5675
9.2245	13.1599
9.095	14.0892
8.9691	13.2262
8.8467	10.9514
8.7275	9.306
8.6116	8.4665
8.4986	7.672
8.3886	6.3782
8.2814	5.2802
8.1769	4.1491
8.075	3.4413
7.9756	3.0898
7.8786	2.787
7.784	2.5659
7.6916	2.4012
7.6014	2.2692
7.5133	2.2332
7.4272	2.1979
7.343	2.1958
7.2607	2.2353
7.1803	2.2498
7.1016	2.2561
7.0246	2.2624
6.9493	2.298
6.8755	2.3372
6.8034	2.3452
6.7327	2.3969
6.6634	2.4153
6.5956	2.4182
6.5292	2.4239
6.464	2.4192
6.4002	2.4358
6.3376	2.3747
6.2762	2.3356
6.216	2.2936
6.157	2.2265
6.099	2.3124
6.0421	2.3496
5.9863	2.4253
5.9315	2.5364
5.8777	2.6561
5.8249	2.6838
5.773	2.7328
5.722	2.7644
5.6719	2.794
5.6227	2.8137
5.5744	2.8406
5.5268	2.886
5.4801	2.8932
5.4341	2.9161
5.3889	2.8634
5.3445	2.8535
5.3008	2.8615
5.2578	2.9618
5.2154	3.0694
5.1738	3.1085
5.1328	3.1336
5.0925	3.1788
5.0528	3.1737
5.0137	3.1772
4.9752	3.2314
4.9373	3.327
4.9	3.438
4.8632	3.4999
4.827	3.5672
4.7913	3.5873
4.7561	3.6595
4.7215	3.6942
4.6873	3.7226
4.6536	3.7545
4.6205	3.7992
4.5877	3.8114
4.5555	3.8784
4.5237	3.8901
4.4923	3.918
4.4614	3.9223
4.4309	3.9785
4.4008	3.9563
4.3711	3.9984
4.3418	4.0228
4.3129	4.0462
4.2844	4.0402
4.2563	4.0821
4.2285	4.1049
4.2011	4.1264
4.174	4.1442
4.1473	4.1494
4.1209	4.17
4.0949	4.166
4.0692	4.1847
4.0438	4.2044
4.0187	4.1967
3.994	4.2265
3.9695	4.2159
3.9453	4.2434
3.9214	4.2164
3.8979	4.2586
3.8746	4.2387
3.8515	4.2574
3.8288	4.2849
3.8063	4.2539
3.7841	4.2483
3.7621	4.2335
3.7404	4.2475
3.7189	4.2307
3.6977	4.2101
3.6767	4.24
3.656	4.2278
3.6355	4.2328
3.6152	4.2478
3.5951	4.2133
3.5753	4.2056
3.5557	4.1951
3.5363	4.1976
3.5171	4.1686
3.4981	4.1025
3.4793	4.0833
3.4607	4.0753
3.4423	4.0717
3.4241	3.9382
3.4061	3.9935
3.3883	4.0052
3.3707	4.002
3.3533	4.0174
3.336	4.0493
3.3189	4.0277
3.302	4.0176
3.2853	4.0146
3.2687	3.9956
3.2523	3.9886
3.2361	3.9675
3.22	3.9236
3.204	3.9218
3.1883	3.9211
3.1727	3.8815
3.1572	3.8824
3.1419	3.8433
3.1268	3.8128
3.1117	3.8149
3.0969	3.78
3.0821	3.7852
3.0675	3.8301
3.0531	3.7856
3.0388	3.8036
3.0246	3.798
3.0105	3.8029
2.9966	3.8039
2.9828	3.8133
2.9692	3.8439
2.9556	3.8234
2.9422	3.8067
2.9289	3.8184
2.9157	3.8426
2.9027	3.8733
2.8897	3.8548
2.8769	3.8798
2.8642	3.8867
2.8516	3.8993
2.8391	3.9567
2.8267	3.893
2.8144	3.9178
2.8022	3.8691
2.7902	3.9324
2.7782	3.9572
2.7664	3.9715
2.7546	4.054
2.7429	4.0717
2.7314	4.2438
2.7199	4.5579
2.7085	4.7484
2.6973	4.886
2.6861	4.9725
2.675	5.0582
2.664	5.1541
2.6531	5.0824
2.6423	5.0602
2.6315	5.114
2.6209	5.1166
2.6103	5.1354
2.5999	5.1403
2.5895	5.1825
2.5792	5.1026
2.569	5.1696
2.5588	5.1729
2.5487	5.153
2.5388	5.1719
2.5289	5.1398
2.519	5.0747
2.5093	5.16
2.4996	5.1094
2.49	5.1018
2.4805	5.1106
2.471	5.2096
2.4616	5.1403
2.4523	5.1415
2.4431	5.1602
2.4339	5.0868
2.4248	5.1098
2.4157	5.2273
2.4068	5.1825
2.3979	5.1745
2.389	5.0756
2.3802	5.1145
2.3715	5.2741
2.3629	5.1637
2.3543	5.2457
2.3458	5.1875
2.3373	5.265
2.3289	5.2047
2.3206	5.161
2.3123	5.1234
2.3041	5.2376
2.2959	5.1755
2.2878	5.2015
2.2798	5.1421
2.2718	5.2296
2.2638	5.2075
2.2559	5.2273
2.2481	5.1982
2.2403	5.239
2.2326	5.2231
2.225	5.2359
2.2173	5.228
2.2098	5.2174
2.2023	5.3784
2.1948	5.3189
2.1874	5.2987
2.18	5.2432
2.1727	5.2797
2.1655	5.3449
2.1583	5.3678
2.1511	5.3264
2.144	5.355
2.1369	5.3667
2.1299	5.3725
2.1229	5.3871
2.116	5.3698
2.1091	5.4002
2.1023	5.4654
2.0955	5.5139
2.0887	5.4719
2.082	5.4675
2.056	5.3641
2.024	5.4995
1.992	5.5637
1.96	5.5098
1.928	5.5129
1.896	5.5896
1.864	5.5928
1.832	5.5399
1.8	5.689
1.768	5.7165
1.736	5.8781
1.704	5.8225
1.672	5.7916
1.64	5.8169
1.608	5.887
1.576	6.0989
1.544	6.0843
1.512	6.049
1.48	6.0275
1.448	6.0185
1.416	6.0878
1.384	6.1673
1.352	6.063
1.32	6.1064
1.288	6.081
1.256	6.0817
1.224	6.07
1.192	6.1569
1.16	6.1762
1.128	6.2603
1.096	6.1128
1.064	6.0491
1.032	6.0553
1	6.0204
0.968	5.9017
0.936	5.9977
0.904	6.178
0.872	6.3133
0.84	6.753
0.808	7.1771
0.794	7.0557
0.786	6.9634
0.778	7.1414
0.77	6.9511
0.762	7.3081
0.754	7.0522
0.746	7.0397
0.738	7.3736
0.73	7.0316
0.722	6.9584
0.714	7.0846
0.706	7.1083
0.698	7.1177
0.69	6.9197
0.682	7.1829
0.674	7.0006
0.666	7.1527
0.658	7.0897
0.65	6.9508
0.642	7.0955
0.634	6.913
0.626	6.8726
0.618	6.8098
0.61	6.8501
0.602	6.8952
0.594	6.904
0.586	6.8033
0.578	6.7881
0.57	6.7383
0.562	6.6524
0.554	6.6873
0.546	6.5843
0.538	6.8398
0.53	6.6551
0.522	6.6554
0.514	6.6139
0.506	6.5345
0.498	6.5764
0.49	6.6042
0.482	6.4591
0.474	6.4546
0.466	6.6077
0.458	6.2389
0.45	6.1952
0.442	6.2315
0.434	6.2951
0.426	6.2562
0.418	5.8072
0.41	5.764
0.402	5.6842
