Name: Bustamite (Mn,Ca)3Si3O9
Type: Mineral
Class: Silicates
Subclass: Inosilicates (Chain Silicates) (Pyroxenoid Group)
Particle Size: Fine  (0-74 Micrometers)
Owner: JHU
Wavelength Range: IR
Origin: Smithsonian NMNH R3099 Sample from Franklin, New Jersey.
Description: The sample was a prismatic piece about 3 cm in length
Measurement: Bidirectional reflectance
X Units: Wavelength (micrometers)
Y Units: Reflectance (percent)
wavelength	value
25.0442	4.8926
24.3388	4.9082
23.6719	5.0161
23.0407	5.9365
22.4422	5.8262
21.8741	6.6623
21.334	7.3442
20.8199	7.4028
20.33	6.2861
19.8627	4.8486
19.4163	4.6431
18.9896	5.938
18.5812	6.5679
18.19	6.0508
17.815	5.4189
17.4551	4.8559
17.1094	3.8579
16.7772	2.9978
16.4576	3.229
16.15	3.6719
15.8537	3.676
15.568	3.3918
15.2925	3.2751
15.0265	2.8957
14.7697	3.1494
14.5214	2.6738
14.2814	2.4902
14.0492	3.7305
13.8244	4.4753
13.6067	4.9487
13.3957	5.7893
13.1912	5.9546
12.9929	5.9536
12.8004	5.9006
12.6135	5.6865
12.432	5.3855
12.2557	5.041
12.0843	4.7412
11.9176	4.4668
11.7555	4.1973
11.5977	3.855
11.444	3.4336
11.2944	3.3606
11.1487	3.7073
11.0067	4.4712
10.8682	4.0137
10.7332	3.5259
10.6015	4.5754
10.473	5.7392
10.3476	5.8284
10.2251	4.6675
10.1056	4.4133
9.98873	3.4226
9.87458	3.1518
9.763	3.5666
9.65392	3.1951
9.54724	3.0959
9.44291	3.9321
9.34082	4.2732
9.24091	4.6909
9.14312	5.4997
9.04739	5.5449
8.95363	5.5911
8.8618	6.26
8.77183	6.5014
8.68368	4.6252
8.59727	2.6182
8.51257	1.5996
8.42951	1.4529
8.34807	1.8572
8.26819	2.4106
8.18981	3.0359
8.11292	3.7666
8.03745	4.3562
7.96337	4.8325
7.89064	5.3081
7.81924	5.9099
7.74911	6.3733
7.68023	6.7722
7.61256	7.0947
7.54608	7.3965
7.48074	7.8293
7.41653	8.4377
7.35341	9.1946
7.29136	9.7842
7.23034	10.1194
7.17033	10.448
7.11132	10.6877
7.05327	10.8205
6.99616	10.9109
6.93996	11.0263
6.88467	11.1772
6.83024	11.2802
6.77667	11.365
6.72393	11.2566
6.67201	11.1091
6.62089	10.8994
6.57054	10.6762
6.52095	10.685
6.4721	10.5356
6.42398	10.1157
6.37657	9.3845
6.32986	8.7722
6.28382	8.8757
6.23845	9.4338
6.19373	9.5122
6.14965	9.1748
6.10619	8.7666
6.06334	8.4428
6.02109	8.76
5.97942	9.6567
5.93832	10.3906
5.89778	10.7148
5.8578	10.6765
5.81835	10.5661
5.77943	10.2661
5.74103	10.0583
5.70314	10.0886
5.66574	9.9543
5.62883	10.0105
5.5924	10.553
5.55644	11.021
5.52093	11.1958
5.48588	11.5974
5.45127	11.9223
5.41709	12.0659
5.38334	12.1465
5.35	11.7199
5.31708	10.9216
5.28456	9.9187
5.25243	9.4441
5.2207	9.5708
5.18934	10.0891
5.15836	10.7207
5.12775	11.4878
5.09749	12.0578
5.0676	12.2424
5.03805	12.1401
5.00884	12.0691
4.97998	12.3547
4.95144	12.5898
4.92322	12.8603
4.89533	13.1318
4.86775	13.4609
4.84048	13.7783
4.81351	14.3986
4.78684	15.0151
4.76047	15.5903
4.73439	16.2768
4.70859	16.7507
4.68306	17.0935
4.65782	17.6999
4.63284	18.4453
4.60814	18.9121
4.58369	19.1589
4.5595	19.3876
4.53557	19.8225
4.51188	20.1376
4.48845	20.3559
4.46525	20.4953
4.44229	20.5891
4.41957	20.6845
4.39708	20.747
4.37481	20.7834
4.35277	20.8239
4.33096	20.8657
4.30935	20.9182
4.28797	20.988
4.26679	21.049
4.24583	21.0852
4.22506	21.1308
4.2045	21.1562
4.18414	21.1892
4.16398	21.2287
4.14401	21.2614
4.12423	21.298
4.10464	21.3525
4.08523	21.4011
4.066	21.4475
4.04696	21.4902
4.02809	21.5297
4.0094	21.5632
3.99088	21.5705
3.97253	21.5959
3.95435	21.6301
3.93634	21.684
3.91848	21.7009
3.90079	21.7243
3.88326	21.7394
3.86589	21.7387
3.84867	21.7233
3.8316	21.7214
3.81468	21.7053
3.79791	21.6965
3.78129	21.6721
3.76482	21.6408
3.74848	21.614
3.73229	21.5788
3.71624	21.5383
3.70032	21.4689
3.68454	21.4089
3.6689	21.3684
3.65338	21.3413
3.638	21.3032
3.62275	21.2338
3.60762	21.1774
3.59262	21.1306
3.57775	21.0595
3.56299	21.0217
3.54836	20.9604
3.53385	20.9238
3.51945	20.8498
3.50517	20.6743
3.49101	20.6538
3.47696	20.6455
3.46303	20.6359
3.4492	20.5624
3.43549	20.437
3.42188	20.2353
3.40838	20.1506
3.39499	20.2065
3.38171	20.1865
3.36852	20.1762
3.35544	20.1245
3.34246	20.1511
3.32958	20.1674
3.3168	20.0983
3.30411	20.0361
3.29153	19.9311
3.27903	19.8618
3.26664	19.747
3.25433	19.6274
3.24212	19.5312
3.23	19.402
3.21797	19.2941
3.20603	19.1735
3.19418	19.0222
3.18241	18.8837
3.17074	18.736
3.15914	18.5712
3.14763	18.3945
3.13621	18.2353
3.12487	18.0717
3.11361	17.9233
3.10243	17.7741
3.09133	17.6142
3.0803	17.4672
3.06936	17.3479
3.0585	17.208
3.04771	17.1076
3.037	16.9921
3.02636	16.8867
3.0158	16.7573
3.00531	16.6215
2.99489	16.4853
2.98454	16.3564
2.97427	16.2348
2.96407	16.0886
2.95393	16.0058
2.94387	15.9399
2.93387	15.8784
2.92394	15.8757
2.91408	15.8845
2.90429	15.9619
2.89456	16.0676
2.88489	16.1408
2.87529	16.2402
2.86576	16.3527
2.85628	16.4301
2.84687	16.5473
2.83752	16.6318
2.82823	16.7329
2.81901	16.8549
2.80984	16.9765
2.80073	17.1928
2.79168	17.4155
2.78269	17.6904
2.77376	17.9575
2.76488	18.2651
2.75606	18.583
2.7473	18.9172
2.73859	19.373
2.72994	19.7895
2.72134	20.3183
2.7128	20.7885
2.70431	21.2517
2.69587	21.6083
2.68748	21.8474
2.67915	21.9565
2.67087	21.9355
2.66264	22.6581
2.65446	22.7558
2.64633	22.8115
2.63825	22.8676
2.63021	22.8867
2.62223	22.9091
2.6143	22.9045
2.60641	22.8881
2.59857	22.9428
2.59078	22.9448
2.58304	22.9345
2.57534	22.9807
2.56768	22.9894
2.56008	22.9599
2.55251	22.9453
2.54499	22.9555
2.53752	22.9545
2.53009	22.955
2.5227	22.9467
2.51536	22.9272
2.50806	22.9272
2.5008	22.8989
2.49358	22.9365
2.4864	22.9045
2.47927	22.8896
2.47218	22.893
2.46512	22.7997
2.45811	22.8823
2.45114	22.8801
2.4442	22.8166
2.43731	22.8654
2.43045	22.8801
2.42363	22.8283
2.41685	22.842
2.41011	22.8598
2.40341	22.8261
2.39674	22.8281
2.39011	22.7785
2.38352	22.7941
2.37696	22.759
2.37044	22.7431
2.36395	22.7578
2.35751	22.7167
2.35109	22.6701
2.34471	22.6777
2.33836	22.6415
2.33205	22.6584
2.32578	22.6184
2.31953	22.6069
2.31332	22.5947
2.30714	22.5986
2.301	22.5869
2.29489	22.5971
2.28881	22.5663
2.28276	22.581
2.27675	22.5195
2.27076	22.5419
2.26481	22.5068
2.25889	22.457
2.253	22.4663
2.24714	22.4121
2.24131	22.4418
2.23551	22.496
2.22974	22.4306
2.224	22.4081
2.21829	22.4511
2.21261	22.4487
2.20696	22.4555
2.20134	22.4829
2.19574	22.4814
2.19018	22.4692
2.18464	22.4418
2.17913	22.4003
2.17365	22.4848
2.16819	22.4589
2.16277	22.5615
2.15737	22.5497
2.15199	22.4716
2.14665	22.4746
2.14133	22.4999
2.13603	22.5097
2.13077	22.4829
2.12552	22.5165
2.12031	22.5234
2.11512	22.5107
2.10995	22.5195
2.10481	22.4599
2.0997	22.4863
2.09461	22.5649
2.08954	22.602
2.0845	22.5742
2.07948	22.5161
