Name: Bustamite (Mn,Ca)3Si3O9
Type: Mineral
Class: Silicates
Subclass: Inosilicates (Chain Silicates) (Pyroxenoid Group)
Particle Size: Fine  (less than 2 Micrometers)
Owner: JHU
Wavelength Range: IR
Origin: Smithsonian NMNH R3099 Sample from Franklin, New Jersey.
Description: The sample was a prismatic piece about 3 cm in length
Measurement: Transmission
X Units: Wavelength (micrometers)
Y Units: Transmittance (percent)
wavelength	value
25.0442	75.9764
24.3388	71.1912
23.6719	71.242
23.0407	54.1112
22.4422	46.2577
21.8741	40.1894
21.334	40.244
20.8199	43.3983
20.33	56.4334
19.8627	59.4061
19.4163	55.8251
18.9896	61.578
18.5812	72.6297
18.19	73.2166
17.815	63.119
17.4551	73.533
17.1094	81.6775
16.7772	84.5603
16.4576	85.2439
16.15	85.3445
15.8537	84.9412
15.568	80.7244
15.2925	71.4608
15.0265	82.0506
14.7697	84.0652
14.5214	78.4285
14.2814	82.4353
14.0492	87.1404
13.8244	88.0506
13.6067	88.8845
13.3957	89.4744
13.1912	89.7678
12.9929	89.9802
12.8004	89.5252
12.6135	89.1004
12.432	87.721
12.2557	84.4495
12.0843	82.1057
11.9176	78.4236
11.7555	77.0916
11.5977	73.9417
11.444	65.1644
11.2944	51.3749
11.1487	38.0121
11.0067	27.3202
10.8682	34.5839
10.7332	35.1151
10.6015	26.8578
10.473	28.9281
10.3476	36.5614
10.2251	52.0277
10.1056	54.6473
9.98873	47.8724
9.87458	39.3231
9.763	31.12
9.65392	30.9203
9.54724	32.7641
9.44291	36.9467
9.34082	35.7411
9.24091	29.5707
9.14312	30.8432
9.04739	42.5336
8.95363	57.0135
8.8618	68.0833
8.77183	75.7977
8.68368	80.618
8.59727	83.9095
8.51257	86.2117
8.42951	88.1541
8.34807	89.8723
8.26819	91.1921
8.18981	92.1604
8.11292	92.9675
8.03745	93.5283
7.96337	94.155
7.89064	94.5732
7.81924	94.9592
7.74911	95.156
7.68023	95.3506
7.61256	95.6707
7.54608	95.8848
7.48074	96.0139
7.41653	96.0749
7.35341	96.0466
7.29136	96.22
7.23034	96.1982
7.17033	96.249
7.11132	95.8633
7.05327	95.1777
6.99616	95.0303
6.93996	95.3311
6.88467	95.3416
6.83024	95.4531
6.77667	95.6736
6.72393	95.8899
6.67201	96.2344
6.62089	96.5154
6.57054	96.8518
6.52095	96.8115
6.4721	96.8621
6.42398	96.9277
6.37657	96.5889
6.32986	96.2888
6.28382	96.0889
6.23845	95.8564
6.19373	95.3582
6.14965	94.552
6.10619	94.4287
6.06334	94.949
6.02109	96.344
5.97942	97.75
5.93832	97.8203
5.89778	97.7461
5.8578	97.8113
5.81835	98.1103
5.77943	98.0762
5.74103	98.1601
5.70314	98.1326
5.66574	98.1435
5.62883	98.1521
5.5924	98.166
5.55644	98.248
5.52093	98.2744
5.48588	98.2949
5.45127	98.3262
5.41709	98.4451
5.38334	98.333
5.35	98.3904
5.31708	98.3362
5.28456	98.293
5.25243	98.2207
5.2207	98.2529
5.18934	98.363
5.15836	98.4094
5.12775	98.4568
5.09749	98.4902
5.0676	98.4919
5.03805	98.5373
5.00884	98.5447
4.97998	98.5735
4.95144	98.5691
4.92322	98.5998
4.89533	98.6404
4.86775	98.633
4.84048	98.6545
4.81351	98.717
4.78684	98.7742
4.76047	98.781
4.73439	98.8142
4.70859	98.7873
4.68306	98.8669
4.65782	98.8992
4.63284	98.9382
4.60814	99.0754
4.58369	98.9704
4.5595	98.9612
4.53557	98.9441
4.51188	98.9177
4.48845	98.927
4.46525	98.8987
4.44229	98.8772
4.41957	98.8845
4.39708	98.8611
4.37481	98.9358
4.35277	98.8581
4.33096	98.8464
4.30935	98.8352
4.28797	98.9221
4.26679	98.8894
4.24583	98.9128
4.22506	98.9285
4.2045	98.8445
4.18414	98.904
4.16398	98.9138
4.14401	98.8533
4.12423	98.9099
4.10464	98.9455
4.08523	98.9031
4.066	98.9021
4.04696	98.8767
4.02809	98.9182
4.0094	98.906
3.99088	98.8049
3.97253	98.7937
3.95435	98.8259
3.93634	98.8518
3.91848	98.8533
3.90079	98.8103
3.88326	98.7971
3.86589	98.6765
3.84867	98.7268
3.8316	98.7205
3.81468	98.7341
3.79791	98.6404
3.78129	98.6819
3.76482	98.614
3.74848	98.5886
3.73229	98.531
3.71624	98.5159
3.70032	98.4065
3.68454	98.3874
3.6689	98.4001
3.65338	98.3669
3.638	98.3928
3.62275	98.2268
3.60762	98.1799
3.59262	98.2385
3.57775	98.1643
3.56299	98.0974
3.54836	97.9617
3.53385	97.9431
3.51945	97.719
3.50517	97.4539
3.49101	97.5017
3.47696	97.4924
3.46303	97.4612
3.4492	97.363
3.43549	97.0466
3.42188	96.6409
3.40838	96.7405
3.39499	97.0076
3.38171	97.0139
3.36852	97.2986
3.35544	97.3455
3.34246	97.3162
3.32958	97.262
3.3168	97.1838
3.30411	97.2029
3.29153	97.1208
3.27903	97.0056
3.26664	96.9724
3.25433	96.8518
3.24212	96.9314
3.23	96.7585
3.21797	96.7615
3.20603	96.6697
3.19418	96.532
3.18241	96.3874
3.17074	96.1716
3.15914	96.0291
3.14763	95.8611
3.13621	95.5662
3.12487	95.4099
3.11361	95.1218
3.10243	94.6189
3.09133	94.2283
3.0803	93.9861
3.06936	93.6921
3.0585	93.3523
3.04771	93.1931
3.037	92.8679
3.02636	92.5095
3.0158	91.9431
3.00531	91.3601
2.99489	90.7429
2.98454	89.9744
2.97427	88.9295
2.96407	88.1326
2.95393	87.2791
2.94387	86.5642
2.93387	86.0779
2.92394	85.8084
2.91408	85.7166
2.90429	85.781
2.89456	85.99
2.88489	86.3914
2.87529	86.5398
2.86576	86.9343
2.85628	87.5271
2.84687	88.0779
2.83752	88.7517
2.82823	89.4138
2.81901	90.408
2.80984	91.1248
2.80073	92.0662
2.79168	92.9187
2.78269	93.9548
2.77376	95.1052
2.76488	96.0154
2.75606	97.1482
2.7473	97.9138
2.73859	98.5349
2.72994	98.864
2.72134	98.9529
2.7128	99.1677
2.70431	99.3904
2.69587	99.446
2.68748	99.699
2.67915	99.6374
2.67087	99.8718
2.66264	99.7146
2.65446	99.5281
2.64633	99.6638
2.63825	99.6326
2.63021	99.739
2.62223	99.6013
2.6143	99.7458
2.60641	99.7654
2.59857	99.6853
2.59078	99.6658
2.58304	99.7322
2.57534	99.5329
2.56768	99.7322
2.56008	99.7302
2.55251	99.5408
2.54499	99.6306
2.53752	99.6892
2.53009	99.6658
2.5227	99.4177
2.51536	99.4568
2.50806	99.7087
2.5008	99.6716
2.49358	99.5466
2.4864	99.488
2.47927	99.6208
2.47218	99.572
2.46512	99.656
2.45811	99.6267
2.45114	99.7673
2.4442	99.3923
2.43731	99.7224
2.43045	99.6013
2.42363	99.4333
2.41685	99.8279
2.41011	99.8122
2.40341	99.6326
2.39674	99.5251
2.39011	99.3826
2.38352	99.6111
2.37696	99.6443
2.37044	99.7439
2.36395	99.6345
2.35751	99.6814
2.35109	99.824
2.34471	99.8044
2.33836	99.4783
2.33205	99.6443
2.32578	99.4841
2.31953	99.9372
2.31332	99.8533
2.30714	99.6814
2.301	99.6287
2.29489	99.8454
2.28881	99.7419
2.28276	99.7966
2.27675	99.7283
2.27076	99.5779
2.26481	100.047
2.25889	99.7732
2.253	99.7341
2.24714	100.086
2.24131	99.7497
2.23551	99.9333
2.22974	100.277
2.224	99.7927
2.21829	99.8982
2.21261	100.031
2.20696	100.07
2.20134	99.8357
2.19574	99.9685
2.19018	100.019
2.18464	100.113
2.17913	99.906
2.17365	100.344
2.16819	100.445
2.16277	100.191
2.15737	100.5
2.15199	100.289
2.14665	100.164
2.14133	100.004
2.13603	100.164
2.13077	100.515
2.12552	100.441
2.12031	100.722
2.11512	100.394
2.10995	100.289
2.10481	100.476
2.0997	100.281
2.09461	100.773
2.08954	100.367
2.0845	100.781
2.07948	100.398
