Name: Bustamite (Mn,Ca)3Si3O9
Type: Mineral
Class: Silicates
Subclass: Inosilicates (Chain Silicates) (Pyroxenoid Group)
Particle Size: Solid
Owner: JHU
Wavelength Range: IR
Origin: Smithsonian NMNH R3099 Sample from Franklin, New Jersey.
Description: The sample was a prismatic piece about 3 cm in length
Measurement: Bidirectional reflectance
X Units: Wavelength (micrometers)
Y Units: Reflectance (percent)
wavelength	value
25.0442	22.7783
24.3388	23.6801
23.6719	23.9755
23.0407	30.8671
22.4422	31.9806
21.8741	37.6505
21.334	46.171
20.8199	48.5402
20.33	37.9965
19.8627	30.0934
19.4163	28.9797
18.9896	32.4721
18.5812	33.7509
18.19	33.6234
17.815	33.745
17.4551	26.2665
17.1094	12.6201
16.7772	7.3388
16.4576	7.5195
16.15	8.2729
15.8537	9.1064
15.568	10.0556
15.2925	11.7329
15.0265	8.7612
14.7697	9.6699
14.5214	11.8786
14.2814	9.8933
14.0492	8.3713
13.8244	9.2986
13.6067	9.7512
13.3957	10.3213
13.1912	10.7497
12.9929	11.103
12.8004	11.5139
12.6135	11.8838
12.432	12.2898
12.2557	12.7819
12.0843	13.258
11.9176	13.8552
11.7555	14.656
11.5977	15.8498
11.444	17.6259
11.2944	20.2832
11.1487	26.3896
11.0067	33.9291
10.8682	30.059
10.7332	23.7116
10.6015	26.3305
10.473	31.2187
10.3476	31.6513
10.2251	27.5029
10.1056	26.9672
9.98873	21.7597
9.87458	19.8112
9.763	21.5812
9.65392	18.0197
9.54724	13.5012
9.44291	19.446
9.34082	25.8644
9.24091	29.3525
9.14312	34.3241
9.04739	32.2594
8.95363	28.9643
8.8618	29.422
8.77183	27.4626
8.68368	17.1562
8.59727	9.855
8.51257	4.4744
8.42951	2.446
8.34807	2.9136
8.26819	3.4375
8.18981	3.876
8.11292	4.2473
8.03745	4.5181
7.96337	4.761
7.89064	5.0012
7.81924	5.241
7.74911	5.458
7.68023	5.6448
7.61256	5.7998
7.54608	5.9341
7.48074	6.0522
7.41653	6.1841
7.35341	6.3093
7.29136	6.4309
7.23034	6.522
7.17033	6.6138
7.11132	6.6894
7.05327	6.748
6.99616	6.8017
6.93996	6.8476
6.88467	6.8887
6.83024	6.9485
6.77667	7.0014
6.72393	7.0598
6.67201	7.0825
6.62089	7.1233
6.57054	7.1435
6.52095	7.1711
6.4721	7.1821
6.42398	7.1611
6.37657	7.1577
6.32986	7.1645
6.28382	7.1899
6.23845	7.2173
6.19373	7.227
6.14965	7.2348
6.10619	7.2453
6.06334	7.259
6.02109	7.2546
5.97942	7.2558
5.93832	7.2656
5.89778	7.2856
5.8578	7.303
5.81835	7.3039
5.77943	7.3681
5.74103	7.4397
5.70314	7.4541
5.66574	7.448
5.62883	7.4595
5.5924	7.4912
5.55644	7.5173
5.52093	7.5459
5.48588	7.5808
5.45127	7.6206
5.41709	7.6352
5.38334	7.6636
5.35	7.6682
5.31708	7.6362
5.28456	7.5874
5.25243	7.5617
5.2207	7.5593
5.18934	7.6096
5.15836	7.6526
5.12775	7.7136
5.09749	7.7431
5.0676	7.739
5.03805	7.7241
5.00884	7.7353
4.97998	7.7441
4.95144	7.7588
4.92322	7.7856
4.89533	7.7991
4.86775	7.8301
4.84048	7.8572
4.81351	7.9223
4.78684	8.0012
4.76047	8.0627
4.73439	8.1489
4.70859	8.2199
4.68306	8.2827
4.65782	8.3745
4.63284	8.5373
4.60814	8.6511
4.58369	8.708
4.5595	8.7512
4.53557	8.8581
4.51188	8.9326
4.48845	9
4.46525	9.018
4.44229	9.0573
4.41957	9.0791
4.39708	9.0903
4.37481	9.1174
4.35277	9.1421
4.33096	9.1584
4.30935	9.1782
4.28797	9.228
4.26679	9.2497
4.24583	9.251
4.22506	9.2693
4.2045	9.2925
4.18414	9.3166
4.16398	9.3305
4.14401	9.3606
4.12423	9.383
4.10464	9.4092
4.08523	9.4311
4.066	9.4323
4.04696	9.4482
4.02809	9.4443
4.0094	9.426
3.99088	9.3974
3.97253	9.4182
3.95435	9.4497
3.93634	9.4966
3.91848	9.5007
3.90079	9.5195
3.88326	9.5359
3.86589	9.5371
3.84867	9.5307
3.8316	9.5454
3.81468	9.5561
3.79791	9.5676
3.78129	9.5617
3.76482	9.563
3.74848	9.5676
3.73229	9.5678
3.71624	9.5642
3.70032	9.5451
3.68454	9.5349
3.6689	9.5127
3.65338	9.5195
3.638	9.5154
3.62275	9.4873
3.60762	9.4812
3.59262	9.4695
3.57775	9.4494
3.56299	9.4136
3.54836	9.386
3.53385	9.3369
3.51945	9.1963
3.50517	8.8894
3.49101	9.0642
3.47696	9.1252
3.46303	9.1347
3.4492	9.042
3.43549	8.9055
3.42188	8.6662
3.40838	8.7649
3.39499	8.98
3.38171	8.9831
3.36852	9.1064
3.35544	9.145
3.34246	9.1711
3.32958	9.1633
3.3168	9.1389
3.30411	9.1035
3.29153	9.0476
3.27903	9.011
3.26664	8.9533
3.25433	8.9179
3.24212	8.8689
3.23	8.8161
3.21797	8.7639
3.20603	8.7204
3.19418	8.6535
3.18241	8.592
3.17074	8.5361
3.15914	8.4634
3.14763	8.4072
3.13621	8.3559
3.12487	8.3032
3.11361	8.248
3.10243	8.2173
3.09133	8.1736
3.0803	8.1152
3.06936	8.0874
3.0585	8.0288
3.04771	8.0056
3.037	7.9858
3.02636	7.9692
3.0158	7.9355
3.00531	7.9065
2.99489	7.8911
2.98454	7.875
2.97427	7.8442
2.96407	7.8371
2.95393	7.8266
2.94387	7.8115
2.93387	7.8193
2.92394	7.8242
2.91408	7.8103
2.90429	7.8188
2.89456	7.8569
2.88489	7.8872
2.87529	7.8823
2.86576	7.9087
2.85628	7.9438
2.84687	7.9697
2.83752	7.9804
2.82823	8.0034
2.81901	8.0346
2.80984	8.0722
2.80073	8.1074
2.79168	8.1548
2.78269	8.1845
2.77376	8.2207
2.76488	8.2871
2.75606	8.3369
2.7473	8.4731
2.73859	8.6123
2.72994	8.8061
2.72134	9.0156
2.7128	9.2014
2.70431	9.3918
2.69587	9.4616
2.68748	9.5527
2.67915	9.5632
2.67087	9.5654
2.66264	9.5927
2.65446	9.5937
2.64633	9.5989
2.63825	9.601
2.63021	9.6062
2.62223	9.5881
2.6143	9.5906
2.60641	9.5681
2.59857	9.56
2.59078	9.5808
2.58304	9.5774
2.57534	9.5725
2.56768	9.5654
2.56008	9.561
2.55251	9.5483
2.54499	9.5395
2.53752	9.5542
2.53009	9.5678
2.5227	9.5422
2.51536	9.5195
2.50806	9.5136
2.5008	9.5041
2.49358	9.4975
2.4864	9.5049
2.47927	9.5119
2.47218	9.5185
2.46512	9.456
2.45811	9.499
2.45114	9.5012
2.4442	9.508
2.43731	9.51
2.43045	9.4927
2.42363	9.5158
2.41685	9.5107
2.41011	9.5256
2.40341	9.5019
2.39674	9.4892
2.39011	9.4768
2.38352	9.5185
2.37696	9.5481
2.37044	9.5244
2.36395	9.5244
2.35751	9.4953
2.35109	9.4719
2.34471	9.5302
2.33836	9.4756
2.33205	9.4494
2.32578	9.5
2.31953	9.5293
2.31332	9.52
2.30714	9.4756
2.301	9.5141
2.29489	9.5127
2.28881	9.52
2.28276	9.5356
2.27675	9.5346
2.27076	9.5639
2.26481	9.5742
2.25889	9.5498
2.253	9.5527
2.24714	9.5615
2.24131	9.5683
2.23551	9.5771
2.22974	9.5722
2.224	9.5639
2.21829	9.581
2.21261	9.5976
2.20696	9.5752
2.20134	9.5669
2.19574	9.5957
2.19018	9.6059
2.18464	9.6094
2.17913	9.5747
2.17365	9.6079
2.16819	9.6025
2.16277	9.6216
2.15737	9.6396
2.15199	9.6157
2.14665	9.5791
2.14133	9.6255
2.13603	9.6704
2.13077	9.6391
2.12552	9.6699
2.12031	9.6748
2.11512	9.6142
2.10995	9.6738
2.10481	9.643
2.0997	9.6992
2.09461	9.6592
2.08954	9.7099
2.0845	9.7187
2.07948	9.6958
