Name: Bustamite (Mn,Ca)3Si3O9
Type: Mineral
Class: Silicates
Subclass: Inosilicates (Chain Silicates) (Pyroxenoid Group)
Particle Size: Coarse  (74-250 Micrometers)
Owner: JHU
Wavelength Range: IR
Origin: Smithsonian NMNH R3099 Sample from Franklin, New Jersey.
Description: The sample was a prismatic piece about 3 cm in length
Measurement: Bidirectional reflectance
X Units: Wavelength (micrometers)
Y Units: Reflectance (percent)
wavelength	value
25.0442	3.0303
24.3388	2.9966
23.6719	2.9949
23.0407	3.8584
22.4422	3.9541
21.8741	4.543
21.334	5.2068
20.8199	5.5466
20.33	4.6687
19.8627	3.7097
19.4163	3.3262
18.9896	4.1062
18.5812	4.4438
18.19	4.5539
17.815	4.4429
17.4551	3.615
17.1094	2.4651
16.7772	1.3135
16.4576	1.1123
16.15	1.3105
15.8537	1.4995
15.568	1.6787
15.2925	1.9502
15.0265	1.4236
14.7697	1.5464
14.5214	1.7502
14.2814	1.4539
14.0492	1.4438
13.8244	1.5471
13.6067	1.6702
13.3957	1.8989
13.1912	1.9988
12.9929	2.019
12.8004	2.0654
12.6135	2.05
12.432	2.0454
12.2557	2.0403
12.0843	2.0789
11.9176	2.1128
11.7555	2.1758
11.5977	2.2732
11.444	2.4263
11.2944	2.6946
11.1487	3.3496
11.0067	4.5932
10.8682	4.1675
10.7332	3.1728
10.6015	3.9651
10.473	5.176
10.3476	5.5588
10.2251	4.0928
10.1056	3.9001
9.98873	3.104
9.87458	2.7961
9.763	3.1101
9.65392	2.7351
9.54724	2.4102
9.44291	3.4829
9.34082	4.199
9.24091	4.9866
9.14312	5.7847
9.04739	5.2214
8.95363	4.6899
8.8618	4.8096
8.77183	4.6662
8.68368	3.0525
8.59727	1.7966
8.51257	1.0415
8.42951	0.4526
8.34807	0.4343
8.26819	0.5549
8.18981	0.6899
8.11292	0.8096
8.03745	0.9109
7.96337	1.0105
7.89064	1.1121
7.81924	1.2551
7.74911	1.3818
7.68023	1.5161
7.61256	1.6248
7.54608	1.7322
7.48074	1.8911
7.41653	2.1338
7.35341	2.477
7.29136	2.7917
7.23034	2.9893
7.17033	3.1736
7.11132	3.3027
7.05327	3.3762
6.99616	3.4206
6.93996	3.4836
6.88467	3.5615
6.83024	3.5991
6.77667	3.6191
6.72393	3.573
6.67201	3.5007
6.62089	3.4145
6.57054	3.3237
6.52095	3.2913
6.4721	3.217
6.42398	3.0273
6.37657	2.7668
6.32986	2.5803
6.28382	2.5884
6.23845	2.7217
6.19373	2.6924
6.14965	2.5483
6.10619	2.3962
6.06334	2.2822
6.02109	2.406
5.97942	2.7546
5.93832	3.0945
5.89778	3.2476
5.8578	3.2014
5.81835	3.1218
5.77943	3.0007
5.74103	2.9824
5.70314	3.0586
5.66574	2.9844
5.62883	2.9622
5.5924	3.1868
5.55644	3.4285
5.52093	3.5454
5.48588	3.7695
5.45127	3.9558
5.41709	4.1028
5.38334	4.2986
5.35	4.1919
5.31708	3.8474
5.28456	3.4116
5.25243	3.1521
5.2207	3.1487
5.18934	3.4189
5.15836	3.7612
5.12775	4.146
5.09749	4.4158
5.0676	4.4563
5.03805	4.3323
5.00884	4.2837
4.97998	4.4294
4.95144	4.5505
4.92322	4.6921
4.89533	4.8247
4.86775	5.0124
4.84048	5.2222
4.81351	5.6296
4.78684	6.0388
4.76047	6.4206
4.73439	6.9299
4.70859	7.2947
4.68306	7.5884
4.65782	8.0754
4.63284	8.7178
4.60814	9.112
4.58369	9.3342
4.5595	9.5415
4.53557	9.9529
4.51188	10.2331
4.48845	10.4248
4.46525	10.5622
4.44229	10.6679
4.41957	10.7473
4.39708	10.7947
4.37481	10.8322
4.35277	10.8718
4.33096	10.9113
4.30935	10.9704
4.28797	11.0266
4.26679	11.0866
4.24583	11.1242
4.22506	11.1582
4.2045	11.1762
4.18414	11.208
4.16398	11.2409
4.14401	11.2868
4.12423	11.3327
4.10464	11.3657
4.08523	11.4223
4.066	11.4614
4.04696	11.5014
4.02809	11.5359
4.0094	11.5686
3.99088	11.5676
3.97253	11.5896
3.95435	11.6267
3.93634	11.6784
3.91848	11.6999
3.90079	11.7341
3.88326	11.7549
3.86589	11.771
3.84867	11.771
3.8316	11.7739
3.81468	11.7768
3.79791	11.7768
3.78129	11.757
3.76482	11.7522
3.74848	11.7456
3.73229	11.7141
3.71624	11.675
3.70032	11.6504
3.68454	11.6262
3.6689	11.5918
3.65338	11.5818
3.638	11.5449
3.62275	11.5041
3.60762	11.4638
3.59262	11.4106
3.57775	11.3874
3.56299	11.3488
3.54836	11.3147
3.53385	11.2905
3.51945	11.2798
3.50517	11.2461
3.49101	11.2407
3.47696	11.218
3.46303	11.2102
3.4492	11.1653
3.43549	11.1291
3.42188	11.0859
3.40838	11.0671
3.39499	11.0481
3.38171	11.0051
3.36852	10.9675
3.35544	10.8979
3.34246	10.8347
3.32958	10.7771
3.3168	10.6931
3.30411	10.603
3.29153	10.5073
3.27903	10.4092
3.26664	10.2973
3.25433	10.1614
3.24212	10.0508
3.23	9.9209
3.21797	9.7788
3.20603	9.6343
3.19418	9.4675
3.18241	9.3022
3.17074	9.1428
3.15914	8.9802
3.14763	8.8003
3.13621	8.6316
3.12487	8.4653
3.11361	8.3144
3.10243	8.1684
3.09133	8.041
3.0803	7.9194
3.06936	7.8298
3.0585	7.7341
3.04771	7.6482
3.037	7.5683
3.02636	7.4656
3.0158	7.3845
3.00531	7.2881
2.99489	7.1875
2.98454	7.1096
2.97427	7.0078
2.96407	6.9118
2.95393	6.8218
2.94387	6.772
2.93387	6.708
2.92394	6.7097
2.91408	6.7131
2.90429	6.7475
2.89456	6.8052
2.88489	6.8921
2.87529	6.9685
2.86576	7.0508
2.85628	7.164
2.84687	7.2756
2.83752	7.3596
2.82823	7.4829
2.81901	7.6211
2.80984	7.7524
2.80073	7.8967
2.79168	8.0512
2.78269	8.2043
2.77376	8.3935
2.76488	8.5864
2.75606	8.8171
2.7473	9.1162
2.73859	9.5288
2.72994	9.9753
2.72134	10.4414
2.7128	10.831
2.70431	11.1311
2.69587	11.3257
2.68748	11.445
2.67915	11.4973
2.67087	11.5334
2.66264	11.7085
2.65446	11.7617
2.64633	11.7654
2.63825	11.7768
2.63021	11.8012
2.62223	11.8017
2.6143	11.802
2.60641	11.7973
2.59857	11.7754
2.59078	11.8051
2.58304	11.8047
2.57534	11.7981
2.56768	11.7744
2.56008	11.7644
2.55251	11.7097
2.54499	11.7448
2.53752	11.7512
2.53009	11.7373
2.5227	11.6894
2.51536	11.7129
2.50806	11.6987
2.5008	11.7138
2.49358	11.6855
2.4864	11.6858
2.47927	11.6699
2.47218	11.6665
2.46512	11.5883
2.45811	11.6313
2.45114	11.6479
2.4442	11.6091
2.43731	11.5942
2.43045	11.6071
2.42363	11.5986
2.41685	11.6203
2.41011	11.6142
2.40341	11.5918
2.39674	11.5693
2.39011	11.5444
2.38352	11.5405
2.37696	11.5425
2.37044	11.5171
2.36395	11.5322
2.35751	11.5425
2.35109	11.4919
2.34471	11.49
2.33836	11.456
2.33205	11.466
2.32578	11.4624
2.31953	11.4397
2.31332	11.4707
2.30714	11.4819
2.301	11.4438
2.29489	11.4477
2.28881	11.4182
2.28276	11.3928
2.27675	11.3925
2.27076	11.4016
2.26481	11.3984
2.25889	11.4026
2.253	11.3633
2.24714	11.3708
2.24131	11.3696
2.23551	11.3869
2.22974	11.3481
2.224	11.3242
2.21829	11.3525
2.21261	11.3628
2.20696	11.3488
2.20134	11.3476
2.19574	11.3418
2.19018	11.3403
2.18464	11.3564
2.17913	11.3183
2.17365	11.3413
2.16819	11.3342
2.16277	11.3901
2.15737	11.3584
2.15199	11.3608
2.14665	11.332
2.14133	11.3437
2.13603	11.3642
2.13077	11.2805
2.12552	11.3244
2.12031	11.3078
2.11512	11.3242
2.10995	11.3137
2.10481	11.3252
2.0997	11.3117
2.09461	11.4123
2.08954	11.383
2.0845	11.3667
2.07948	11.3066
