Name: Strontianite SrCO_3
Type: Mineral
Class: Carbonates
Particle Size: 125-500um
Sample No.: C-1A
Owner: JPL
Wavelength Range: VNIR-SWIR
Origin: Germany, Westphalia, Hamm
Measurement: Hemispherical reflectance
X Units: Wavelength (micrometers)
Y Units: Reflectance (percent)
wavelength	value
0.4	60.98
0.403	61.72
0.406	62.13
0.409	62.65
0.412	63.28
0.415	63.51
0.418	64.2
0.421	64.26
0.424	64.66
0.427	64.89
0.43	65.29
0.433	65.82
0.436	65.93
0.439	66.38
0.442	66.38
0.445	67.25
0.448	67.14
0.451	67.88
0.454	67.95
0.457	68.06
0.46	68.41
0.463	68.31
0.466	68.83
0.469	68.89
0.472	69.29
0.475	69.53
0.478	69.65
0.481	70.11
0.484	69.89
0.487	70.52
0.49	70.53
0.493	70.83
0.496	71.11
0.499	71.23
0.502	71.41
0.505	71.35
0.508	71.76
0.511	71.93
0.514	71.93
0.517	72.21
0.52	72.09
0.523	72.56
0.526	72.67
0.529	72.96
0.532	72.85
0.535	73.19
0.538	73.54
0.541	73.48
0.544	73.66
0.547	73.6
0.55	73.71
0.553	73.66
0.556	73.54
0.559	73.88
0.562	74.28
0.565	74.23
0.568	74.75
0.571	74.46
0.574	74.69
0.577	74.92
0.58	74.46
0.583	74.75
0.586	74.57
0.589	74.75
0.592	75.1
0.595	74.57
0.598	74.98
0.601	75.27
0.604	75.84
0.607	75.84
0.61	75.66
0.613	76.07
0.616	76.13
0.619	75.95
0.622	76.36
0.625	76.24
0.628	76.42
0.631	76.24
0.634	76.42
0.637	76.3
0.64	76.36
0.643	76.77
0.646	76.53
0.649	76.94
0.652	76.65
0.655	77
0.658	76.94
0.661	77.1
0.664	77.45
0.667	76.94
0.67	77.39
0.673	77.68
0.676	77.45
0.679	77.57
0.682	77.39
0.685	77.74
0.688	77.62
0.691	77.68
0.694	78.03
0.697	77.62
0.7	77.8
0.703	77.91
0.706	77.68
0.709	77.97
0.712	77.97
0.715	77.91
0.718	78.09
0.721	77.97
0.724	78.44
0.727	78.15
0.73	78.38
0.733	77.8
0.736	78.2
0.739	78.38
0.742	78.38
0.745	78.44
0.748	78.2
0.751	78.49
0.754	77.97
0.757	78.55
0.76	78.38
0.763	78.15
0.766	78.61
0.769	78.03
0.772	78.38
0.775	78.26
0.778	78.38
0.781	78.49
0.784	78.44
0.787	78.89
0.79	78.49
0.793	78.83
0.796	78.44
0.799	78.89
0.808	78.89
0.82	78.95
0.832	79.12
0.844	79.12
0.856	79.29
0.868	79.41
0.88	79.41
0.892	79.47
0.904	79.64
0.916	79.76
0.928	79.76
0.94	79.76
0.952	79.99
0.964	79.93
0.976	79.93
0.988	80.16
1	80.22
1.012	80.34
1.024	80.44
1.036	80.5
1.048	80.62
1.06	80.56
1.072	80.62
1.084	80.79
1.096	80.85
1.108	80.91
1.12	81.02
1.132	81.2
1.144	81.02
1.156	81.13
1.168	81.22
1.18	81.32
1.192	81.36
1.204	81.46
1.216	81.46
1.228	81.52
1.24	81.52
1.252	81.63
1.264	81.78
1.276	81.82
1.288	81.92
1.3	81.9
1.312	81.88
1.324	82.03
1.336	81.89
1.348	81.82
1.36	82.1
1.372	82.1
1.384	81.99
1.396	81.7
1.408	81.66
1.42	81.5
1.432	81.52
1.444	81.71
1.456	81.61
1.468	81.66
1.48	81.66
1.492	81.66
1.504	82.01
1.516	82.07
1.528	82.01
1.54	82.13
1.552	82.24
1.564	82.19
1.576	82.07
1.588	82.36
1.6	82.52
1.612	82.51
1.624	82.48
1.636	82.36
1.648	82.44
1.66	82.38
1.672	82.36
1.684	82.38
1.696	82.26
1.708	82.13
1.72	81.9
1.732	81.84
1.744	81.78
1.756	81.78
1.768	81.62
1.78	81.96
1.792	82.19
1.804	82.05
1.816	81.68
1.828	81.21
1.84	80.55
1.852	79.75
1.864	78.81
1.876	76.91
1.888	76.2
1.9	77.2
1.912	78.22
1.924	78.59
1.936	78.64
1.948	78.49
1.96	78.11
1.972	77.77
1.984	77.6
1.996	76.46
2.008	75.18
2.02	76.43
2.032	78.92
2.044	80.6
2.056	81.23
2.068	81.58
2.08	81.54
2.092	81.38
2.104	81.17
2.116	80.73
2.128	80.29
2.14	79.47
2.152	77.85
2.164	75.44
2.176	74.26
2.188	75.09
2.2	75.5
2.212	74.5
2.224	72.69
2.236	70.56
2.248	67.86
2.26	64.8
2.272	61.85
2.284	58.94
2.296	56.01
2.308	53.56
2.32	49.51
2.332	46.08
2.344	44.58
2.356	47.54
2.368	54.4
2.38	61.81
2.392	66.76
2.404	68.65
2.416	68.47
2.428	67.12
2.44	64.77
2.452	61.07
2.464	55.99
2.476	51.14
2.488	47.12
2.5	43.88
