Name: Coarse Granular Snow
Type: Frost, Snow and Ice
Class: Snow
Subclass: Coarse Granular
Particle Size: 178 micrometers effective size.
Owner: Dept. of Earth and Planetary Science, John Hopkins University
Wavelength Range: All
Origin: Collected at John Hopkins University IR Spectroscopy Lab.
Description: Coarse snow.   The spectrum from 0.3 to 2.08 micrometers was
Measurement: Directional (10 Degree) Hemispherical Reflectance
X Units: Wavelength (micrometers)
Y Units: Reflectance (percent)
wavelength	value
0.3	95.31
0.31	95.573
0.32	95.841
0.34	96.002
0.35	96.257
0.36	96.479
0.37	96.665
0.38	96.827
0.4	96.962
0.41	97.161
0.42	97.273
0.43	97.456
0.44	97.486
0.46	97.929
0.47	97.904
0.48	97.842
0.49	97.684
0.5	97.483
0.52	97.582
0.53	97.626
0.54	97.36
0.55	97.148
0.56	97.024
0.58	97.014
0.59	96.834
0.6	96.337
0.61	95.221
0.62	95.552
0.64	94.965
0.65	94.632
0.66	94.195
0.67	92.468
0.68	93.485
0.7	92.9
0.71	92.065
0.72	91.471
0.73	91.147
0.74	90.456
0.76	89.52
0.77	88.398
0.78	86.26
0.79	86.366
0.84	85.236
0.96	71.699
1.08	62.226
1.2	41.539
1.32	31.136
1.44	2.3123
1.56	0.8011
1.68	3.095
1.8	7.0924
1.92	0.5351
2.04	0.2263
2.16	1.4709
2.25	3.669
2.25	3.6903
2.26	3.6176
2.26	3.5586
2.27	3.4047
2.27	3.2254
2.28	3.0802
2.29	2.8957
2.29	2.7215
2.3	2.5694
2.31	2.4053
2.31	2.2694
2.32	2.1638
2.32	2.0999
2.33	2.021
2.34	1.9632
2.34	1.8661
2.35	1.8322
2.36	1.7607
2.36	1.7415
2.37	1.6993
2.37	1.6965
2.38	1.6809
2.39	1.6385
2.39	1.6257
2.4	1.5886
2.41	1.6172
2.41	1.5891
2.42	1.5684
2.43	1.5659
2.44	1.5235
2.44	1.4997
2.45	1.5028
2.46	1.4844
2.46	1.4815
2.47	1.4709
2.48	1.4471
2.48	1.4611
2.49	1.433
2.5	1.375
2.51	1.3693
2.51	1.3671
2.52	1.3648
2.53	1.3619
2.54	1.3084
2.54	1.3117
2.55	1.3129
2.56	1.3418
2.57	1.2994
2.57	1.2918
2.58	1.3009
2.59	1.3042
2.6	1.2819
2.6	1.2462
2.61	1.2373
2.62	1.2232
2.63	1.1703
2.64	1.1343
2.64	1.1405
2.65	1.0766
2.66	1.0711
2.67	1.0039
2.68	0.9452
2.68	0.9165
2.69	0.8729
2.7	0.7909
2.71	0.7684
2.72	0.715
2.73	0.6588
2.74	0.6259
2.74	0.5847
2.75	0.5933
2.76	0.5757
2.77	0.5179
2.78	0.4866
2.79	0.4857
2.8	0.4424
2.81	0.4068
2.82	0.4201
2.83	0.3936
2.83	0.3879
2.84	0.409
2.85	0.4038
2.86	0.4653
2.87	0.4708
2.88	0.5356
2.89	0.6574
2.9	0.8118
2.91	1.0117
2.92	1.2104
2.93	1.455
2.94	1.7316
2.95	1.9144
2.96	2.114
2.97	2.2975
2.98	2.4347
2.99	2.6606
3	2.9209
3.01	3.3426
3.02	3.768
3.03	4.3313
3.04	4.9795
3.05	5.5974
3.07	6.2477
3.08	6.6972
3.09	6.8283
3.1	6.7274
3.11	6.354
3.12	6.0485
3.13	5.865
3.14	5.7535
3.16	5.681
3.17	5.6424
3.18	5.6002
3.19	5.4387
3.2	5.2793
3.21	5.0049
3.23	4.7718
3.24	4.5097
3.25	4.3049
3.26	4.1144
3.27	3.9349
3.29	3.775
3.3	3.65
3.31	3.5478
3.33	3.4203
3.34	3.3188
3.35	3.2316
3.36	3.1864
3.38	3.0651
3.39	2.9815
3.4	2.9486
3.42	2.9013
3.43	2.8271
3.44	2.7459
3.46	2.7063
3.47	2.6431
3.49	2.5955
3.5	2.5647
3.51	2.5024
3.53	2.4845
3.54	2.4406
3.56	2.412
3.57	2.3852
3.59	2.3691
3.6	2.3366
3.62	2.294
3.63	2.2962
3.65	2.2488
3.66	2.2306
3.68	2.2078
3.7	2.1934
3.71	2.1422
3.73	2.1718
3.74	2.1181
3.76	2.1183
3.78	2.0847
3.79	2.0788
3.81	2.056
3.83	2.0473
3.84	2.0529
3.86	2.0042
3.88	2.0127
3.89	1.9762
3.91	1.9622
3.93	1.9609
3.95	1.9589
3.97	1.9275
3.98	1.9265
4	1.9239
4.02	1.9004
4.04	1.8836
4.06	1.8666
4.08	1.8741
4.1	1.8533
4.12	1.8521
4.14	1.8455
4.16	1.8316
4.18	1.8242
4.2	1.8391
4.22	1.7989
4.24	1.8092
4.26	1.8005
4.28	1.7939
4.3	1.7998
4.32	1.7787
4.35	1.7967
4.37	1.7832
4.39	1.7828
4.41	1.7974
4.43	1.777
4.46	1.8256
4.48	1.814
4.5	1.8178
4.53	1.8268
4.55	1.8349
4.58	1.841
4.6	1.8427
4.62	1.868
4.65	1.8644
4.67	1.8511
4.7	1.8516
4.73	1.8283
4.75	1.8227
4.78	1.8164
4.8	1.8164
4.83	1.8007
4.86	1.7956
4.89	1.787
4.91	1.7832
4.94	1.7867
4.97	1.7621
5	1.742
5.03	1.7494
5.06	1.733
5.09	1.724
5.12	1.7034
5.15	1.6987
5.18	1.6845
5.21	1.6546
5.24	1.6535
5.27	1.651
5.31	1.6423
5.34	1.6226
5.37	1.6362
5.41	1.5945
5.44	1.58
5.47	1.5592
5.51	1.5741
5.54	1.5329
5.58	1.5362
5.62	1.5133
5.65	1.5
5.69	1.4889
5.73	1.4599
5.77	1.4595
5.81	1.4836
5.84	1.4718
5.88	1.4441
5.92	1.4557
5.97	1.478
6.01	1.4948
6.05	1.4981
6.09	1.5504
6.14	1.5518
6.18	1.559
6.22	1.5751
6.27	1.5828
6.31	1.6035
6.36	1.6201
6.41	1.594
6.46	1.663
6.5	1.6658
6.55	1.6556
6.6	1.6835
6.65	1.6837
6.71	1.7027
6.76	1.6816
6.81	1.6601
6.87	1.6814
6.92	1.6832
6.98	1.6894
7.03	1.6896
7.09	1.676
7.15	1.6729
7.21	1.6577
7.27	1.6468
7.33	1.621
7.4	1.6193
7.46	1.5976
7.52	1.59
7.59	1.5618
7.66	1.559
7.73	1.5447
7.8	1.545
7.87	1.5263
7.94	1.5339
8.01	1.5362
8.09	1.5294
8.16	1.545
8.24	1.5317
8.32	1.514
8.4	1.5232
8.48	1.5109
8.57	1.4685
8.65	1.4905
8.74	1.4721
8.83	1.4751
8.92	1.4514
9.02	1.4259
9.11	1.4228
9.21	1.4039
9.31	1.3686
9.41	1.3231
9.51	1.2658
9.62	1.211
9.73	1.1606
9.84	1.0493
9.95	0.9807
10.07	0.9224
10.18	0.8658
10.31	0.7732
10.43	0.7521
10.56	0.8021
10.69	0.9842
10.82	1.2649
10.96	1.5881
11.1	1.9661
11.25	2.3203
11.39	2.658
11.55	3.003
11.7	3.22
11.86	3.4819
12.03	3.7954
12.2	4.0645
12.37	4.2748
12.55	4.3889
12.74	4.5232
12.93	4.5186
13.12	4.5185
13.33	4.4263
13.54	4.4772
13.75	4.3537
13.97	4.1741
