Name: Distilled Water
Type: Water
Class: Distilled Water
Particle Size: Liquid
Owner: Dept. of Earth and Planetary Science, John Hopkins University
Wavelength Range: IR
Origin: JHU IR Spectroscopy Lab. Original filename DISTWATER
Description: Distilled water obtained using distill apparatus in the JHU IR Spectroscopy Lab.
Measurement: Directional (10 Degree) Hemispherical Reflectance
X Units: Wavelength (micrometers)
Y Units: Reflectance (percent)
wavelength	value
14.0112	3.8716
13.7876	3.6185
13.5711	3.3529
13.3612	3.1136
13.1577	2.8555
12.9604	2.6
12.7688	2.3643
12.5829	2.1119
12.4023	1.8786
12.2268	1.6664
12.0562	1.4929
11.8903	1.3274
11.7289	1.1934
11.5718	1.0735
11.4188	0.9871
11.2699	0.928
11.1248	0.9008
10.9834	0.8857
10.8455	0.8893
10.7111	0.9147
10.5799	0.941
10.4519	0.9869
10.327	1.0323
10.205	1.084
10.0859	1.1274
9.96952	1.1714
9.85581	1.2242
9.74465	1.262
9.63597	1.2965
9.52969	1.3386
9.42574	1.3912
9.32402	1.4138
9.22447	1.453
9.12703	1.4743
9.03163	1.5264
8.9382	1.5518
8.84668	1.5666
8.75701	1.5997
8.66915	1.6159
8.58304	1.6346
8.49861	1.6434
8.41583	1.6803
8.33465	1.6877
8.25502	1.7092
8.1769	1.7173
8.10024	1.7365
8.02501	1.7389
7.95115	1.7405
7.87865	1.7465
7.80746	1.7633
7.73754	1.7776
7.66886	1.7848
7.6014	1.7647
7.53511	1.8253
7.46996	1.7355
7.40593	1.8362
7.34299	1.7523
7.28112	1.7794
7.22027	1.8382
7.16044	1.7169
7.10158	1.9006
7.04369	1.6767
6.98673	1.8195
6.93069	1.9171
6.87554	1.5877
6.82125	1.8963
6.76782	1.7791
6.71523	1.7581
6.66344	1.749
6.61244	1.6559
6.56222	1.5281
6.51276	1.6458
6.46403	1.8449
6.41603	1.3855
6.36874	1.9604
6.32214	2.2164
6.27621	2.3471
6.23095	2.3804
6.18634	2.1672
6.14236	2.2327
6.099	1.9105
6.05625	1.2747
6.0141	1.6606
5.97253	1.2955
5.93153	1.1247
5.89108	1.0008
5.85119	1.3623
5.81183	1.2738
5.773	1.246
5.73468	1.4111
5.69687	1.4872
5.65956	1.5051
5.62273	1.6224
5.58637	1.5894
5.55049	1.704
5.51506	1.7764
5.48008	1.7255
5.44554	1.8729
5.41143	1.7758
5.37775	1.9375
5.34449	1.8171
5.31163	1.9586
5.27918	1.9332
5.24712	1.9734
5.21544	1.9248
5.18415	2.0234
5.15323	1.9831
5.12268	2.054
5.09249	2.048
5.06265	2.0884
5.03316	2.072
5.00401	2.0915
4.9752	2.1092
4.94671	2.1014
4.91855	2.1169
4.89071	2.116
4.86318	2.1222
4.83596	2.1217
4.80905	2.1258
4.78243	2.1296
4.7561	2.1287
4.73007	2.1287
4.70431	2.1351
4.67884	2.1282
4.65364	2.1308
4.62871	2.1339
4.60404	2.1356
4.57964	2.1356
4.5555	2.1334
4.5316	2.1353
4.50796	2.1442
4.48456	2.1471
4.46141	2.1564
4.43849	2.1571
4.4158	2.1662
4.39335	2.1641
4.37112	2.175
4.34912	2.1801
4.32734	2.189
4.30578	2.1942
4.28442	2.2016
4.26328	2.2052
4.24235	2.2083
4.22162	2.2189
4.2011	2.2255
4.18077	2.2385
4.16064	2.2466
4.1407	2.2526
4.12095	2.2583
4.10139	2.2674
4.08201	2.2751
4.06282	2.2904
4.0438	2.2978
4.02496	2.3081
4.0063	2.3217
3.98781	2.3294
3.96949	2.3358
3.95134	2.348
3.93335	2.3631
3.91552	2.3684
3.89786	2.3804
3.88035	2.395
3.86301	2.4078
3.84581	2.4177
3.82877	2.4208
3.81188	2.4421
3.79513	2.4548
3.77854	2.4667
3.76209	2.4767
3.74578	2.4935
3.72961	2.5064
3.71358	2.5121
3.69768	2.5349
3.68193	2.5474
3.6663	2.56
3.65081	2.5804
3.63545	2.5846
3.62022	2.606
3.60511	2.6237
3.59013	2.6351
3.57528	2.6605
3.56054	2.678
3.54593	2.7076
3.53144	2.7256
3.51706	2.7502
3.50281	2.7658
3.48866	2.7926
3.47463	2.8242
3.46072	2.8572
3.44691	2.8792
3.43321	2.9242
3.41963	2.9474
3.40615	2.9852
3.39277	3.0179
3.3795	3.0378
3.36633	3.0868
3.35327	3.1268
3.34031	3.1682
3.32744	3.2118
3.31468	3.256
3.30201	3.3032
3.28944	3.3622
3.27696	3.396
3.26458	3.4467
3.25229	3.5168
3.2401	3.5644
3.22799	3.6194
3.21598	3.6852
3.20405	3.7209
3.19221	3.7898
3.18046	3.8551
3.1688	3.9008
3.15722	3.9479
3.14572	3.9618
3.13431	3.9972
3.12298	4.0097
3.11174	3.9903
3.10057	3.9874
3.08948	3.9683
3.07848	3.9365
3.06755	3.9042
3.05669	3.8487
3.04592	3.823
3.03522	3.7752
3.02459	3.7328
3.01404	3.6927
3.00356	3.6661
2.99316	3.6099
2.98283	3.5685
2.97257	3.4907
2.96237	3.4094
2.95225	3.2953
2.9422	3.1639
2.93221	3.0184
2.9223	2.8048
2.91245	2.6504
2.90266	2.4107
2.89294	2.2892
2.88329	2.0844
2.8737	1.8968
2.86417	1.7375
2.85471	1.5355
2.84531	1.4274
2.83597	1.2197
2.82669	1.142
2.81747	0.9836
2.80832	0.8996
2.79922	0.811
2.79018	0.7299
2.7812	0.6871
2.77227	0.6311
2.76341	0.5668
2.7546	0.5201
2.74584	0.6086
2.73715	0.4931
2.7285	0.6113
2.71991	0.5299
2.71138	0.6268
2.7029	0.8022
2.69447	0.7558
2.68609	0.8862
2.67777	0.806
2.66949	0.7675
2.6617	1.0005
2.6531	1.0807
2.64498	1.1623
2.6369	1.235
2.62888	1.0398
2.62091	1.1364
2.61298	1.2049
2.6051	1.0424
2.59727	1.1022
2.58949	1.2659
2.58175	1.2183
2.57406	1.2328
2.56641	1.3051
2.55881	1.3812
2.55126	1.3755
2.54375	1.4281
2.53628	1.4719
2.52886	1.5063
2.52148	1.536
2.51414	1.5441
2.50684	1.569
2.49959	1.587
2.49238	1.5927
2.48521	1.6018
2.47809	1.6271
2.471	1.6279
2.46395	1.6427
2.45695	1.653
2.44998	1.6599
2.44305	1.6752
2.43616	1.6863
2.42931	1.7001
2.4225	1.6968
2.41573	1.7106
2.40899	1.7114
2.4023	1.7233
2.39563	1.7305
2.38901	1.7315
2.38242	1.753
2.37587	1.7552
2.36936	1.7542
2.36288	1.7698
2.35643	1.7635
2.35002	1.776
2.34365	1.788
2.33731	1.7851
2.331	1.7935
2.32473	1.793
2.31849	1.8025
2.31229	1.8126
2.30612	1.8006
2.29998	1.8097
2.29387	1.8272
2.2878	1.8183
2.28176	1.8272
2.27575	1.843
2.26977	1.8389
2.26382	1.8604
2.25791	1.8549
2.25202	1.8602
2.24617	1.8652
2.24034	1.8729
2.23455	1.86
2.22878	1.8724
2.22305	1.8808
2.21735	1.882
2.21167	1.8822
2.20602	1.8712
2.2004	1.887
2.19482	1.8932
2.18925	1.8837
2.18372	1.8872
2.17822	1.9066
2.17183	1.9078
2.16638	1.9078
2.16096	1.9267
2.15557	1.9169
2.15021	1.9186
2.14487	1.9241
2.13956	1.9313
2.13427	1.9324
2.12902	1.9432
2.12378	1.931
2.11858	1.955
2.11339	1.9678
2.10824	1.9566
2.10311	1.9581
2.098	1.96
2.09292	1.9734
2.08786	1.9623
2.08283	1.9499
