Name: Fine Snow
Type: Frost, Snow and Ice
Class: Snow
Subclass: Fine snow.
Particle Size: 24 micrometers effective size
Sample No.: Original filename FINE.SNW.
Owner: Dept. of Earth and Planetary Science, John Hopkins University
Wavelength Range: All
Origin: Collected at John Hopkins University IR Spectroscopy Lab.
Description: Fine snow. The spectrum from 0.3 to 2.08 micrometers was
Measurement: Directional (10 Degree) Hemispherical Reflectance
X Units: Wavelength (micrometers)
Y Units: Reflectance (percent)
wavelength	value
0.3	98.12
0.31	98.307
0.32	98.378
0.34	98.496
0.35	98.498
0.36	98.551
0.37	98.803
0.38	98.936
0.4	98.703
0.41	98.825
0.42	99.005
0.43	99.096
0.44	99.19
0.46	99.306
0.47	99.247
0.48	99.246
0.49	99.062
0.5	99.094
0.52	99.055
0.53	99.098
0.54	99.01
0.55	99.011
0.56	98.949
0.58	98.809
0.59	98.823
0.6	98.682
0.61	98.499
0.62	98.287
0.64	98.104
0.65	97.96
0.66	97.82
0.67	97.682
0.68	97.617
0.7	97.369
0.71	97.069
0.72	96.198
0.73	96.661
0.74	95.093
0.76	96.078
0.77	95.668
0.78	95.193
0.79	94.817
0.84	94.31
0.96	88.478
1.08	82.101
1.2	65.015
1.32	63.254
1.44	20.633
1.56	11.91
1.68	24.522
1.8	36.986
1.92	9.0951
2.04	4.2149
2.16	17.541
2.25	28.08
2.25	27.836
2.26	27.371
2.26	26.469
2.27	25.398
2.27	23.988
2.28	22.468
2.29	20.873
2.29	19.288
2.3	17.791
2.31	16.373
2.31	15.046
2.32	13.847
2.32	12.705
2.33	11.748
2.34	10.883
2.34	10.181
2.35	9.6026
2.36	9.1008
2.36	8.7392
2.37	8.3963
2.37	8.1576
2.38	8.0006
2.39	7.8384
2.39	7.7306
2.4	7.6077
2.41	7.5047
2.41	7.3411
2.42	7.2039
2.43	7.0313
2.44	6.8942
2.44	6.7303
2.45	6.6126
2.46	6.4568
2.46	6.2858
2.47	6.1432
2.48	5.9545
2.48	5.851
2.49	5.6639
2.5	5.6014
2.51	5.4586
2.51	5.4046
2.52	5.3371
2.53	5.2788
2.54	5.2596
2.54	5.2813
2.55	5.2862
2.56	5.3269
2.57	5.3194
2.57	5.3532
2.58	5.3953
2.59	5.3504
2.6	5.1574
2.6	5.1912
2.61	5.1778
2.62	4.9205
2.63	4.7141
2.64	4.5608
2.64	4.3019
2.65	3.9686
2.66	3.5366
2.67	2.9261
2.68	2.5301
2.68	2.0762
2.69	1.6314
2.7	1.2776
2.71	0.9458
2.72	0.7078
2.73	0.5532
2.74	0.4199
2.74	0.3569
2.75	0.2913
2.76	0.266
2.77	0.2359
2.78	0.2361
2.79	0.2152
2.8	0.1982
2.81	0.1947
2.82	0.1634
2.83	0.1511
2.83	0.1738
2.84	0.1603
2.85	0.1697
2.86	0.2134
2.87	0.1648
2.88	0.216
2.89	0.2517
2.9	0.3062
2.91	0.3386
2.92	0.4395
2.93	0.5139
2.94	0.5918
2.95	0.6676
2.96	0.7209
2.97	0.7964
2.98	0.7909
2.99	0.89
3	0.921
3.01	1.0766
3.02	1.1969
3.03	1.3577
3.04	1.6111
3.05	1.8927
3.07	2.1756
3.08	2.4979
3.09	2.7582
3.1	2.7669
3.11	2.5583
3.12	2.2895
3.13	2.1255
3.14	2.0373
3.16	1.9957
3.17	2.0174
3.18	2.0378
3.19	2.0565
3.2	1.9627
3.21	1.9213
3.23	1.8055
3.24	1.7124
3.25	1.6333
3.26	1.568
3.27	1.501
3.29	1.4275
3.3	1.3835
3.31	1.3283
3.33	1.3027
3.34	1.2748
3.35	1.2357
3.36	1.2089
3.38	1.2329
3.39	1.1852
3.4	1.168
3.42	1.1639
3.43	1.1545
3.44	1.1279
3.46	1.1315
3.47	1.1517
3.49	1.1457
3.5	1.1588
3.51	1.1722
3.53	1.1689
3.54	1.1893
3.56	1.2227
3.57	1.2161
3.59	1.2466
3.6	1.2753
3.62	1.2885
3.63	1.2826
3.65	1.2792
3.66	1.2873
3.68	1.2729
3.7	1.2454
3.71	1.2312
3.73	1.1938
3.74	1.1419
3.76	1.1372
3.78	1.0783
3.79	1.0429
3.81	1.0164
3.83	0.9705
3.84	0.9562
3.86	0.9146
3.88	0.8961
3.89	0.8864
3.91	0.8672
3.93	0.8364
3.95	0.8295
3.97	0.799
3.98	0.799
4	0.7791
4.02	0.7668
4.04	0.7548
4.06	0.7536
4.08	0.7323
4.1	0.728
4.12	0.7196
4.14	0.7154
4.16	0.7218
4.18	0.7033
4.2	0.6963
4.22	0.6849
4.24	0.6688
4.26	0.6707
4.28	0.656
4.3	0.6586
4.32	0.6496
4.35	0.6401
4.37	0.6396
4.39	0.6389
4.41	0.6304
4.43	0.6311
4.46	0.6477
4.48	0.6352
4.5	0.6446
4.53	0.6281
4.55	0.6761
4.58	0.6572
4.6	0.655
4.62	0.673
4.65	0.6633
4.67	0.6711
4.7	0.6884
4.73	0.681
4.75	0.6882
4.78	0.692
4.8	0.7019
4.83	0.6993
4.86	0.7091
4.89	0.7327
4.91	0.7377
4.94	0.729
4.97	0.7421
5	0.7277
5.03	0.7313
5.06	0.7408
5.09	0.7294
5.12	0.7194
5.15	0.7032
5.18	0.6955
5.21	0.6773
5.24	0.6529
5.27	0.6472
5.31	0.6335
5.34	0.6214
5.37	0.6095
5.41	0.59
5.44	0.5821
5.47	0.5589
5.51	0.5734
5.54	0.5466
5.58	0.5381
5.62	0.522
5.65	0.5063
5.69	0.499
5.73	0.4996
5.77	0.4729
5.81	0.4817
5.84	0.475
5.88	0.4478
5.92	0.462
5.97	0.4516
6.01	0.4632
6.05	0.4334
6.09	0.4627
6.14	0.453
6.18	0.4317
6.22	0.4658
6.27	0.4769
6.31	0.4708
6.36	0.4699
6.41	0.4443
6.46	0.4741
6.5	0.4765
6.55	0.486
6.6	0.4895
6.65	0.5013
6.71	0.5101
6.76	0.5123
6.81	0.5018
6.87	0.4907
6.92	0.5182
6.98	0.5238
7.03	0.5149
7.09	0.5063
7.15	0.5087
7.21	0.5077
7.27	0.4865
7.33	0.4824
7.4	0.4765
7.46	0.4817
7.52	0.4651
7.59	0.4554
7.66	0.4921
7.73	0.4648
7.8	0.4824
7.87	0.4748
7.94	0.4704
8.01	0.4663
8.09	0.4602
8.16	0.4824
8.24	0.4743
8.32	0.4765
8.4	0.4566
8.48	0.4554
8.57	0.4677
8.65	0.449
8.74	0.4801
8.83	0.4485
8.92	0.4428
9.02	0.4556
9.11	0.4509
9.21	0.4835
9.31	0.4559
9.41	0.4862
9.51	0.4916
9.62	0.4443
9.73	0.383
9.84	0.3126
9.95	0.2984
10.07	0.2473
10.18	0.2489
10.31	0.2283
10.43	0.2141
10.56	0.2563
10.69	0.3512
10.82	0.4216
10.96	0.5222
11.1	0.6501
11.25	0.6894
11.39	0.8137
11.55	0.8655
11.7	0.9423
11.86	1.0214
12.03	1.0586
12.2	1.1317
12.37	1.1696
12.55	1.1486
12.74	1.1959
12.93	1.1116
13.12	1.1272
13.33	1.1197
13.54	1.0579
13.75	1.0761
13.97	1.0096
