Name: Ice
Type: Frost, Snow and Ice
Class: Ice
Particle Size: solid
Sample No.: Original filename ICE.DAT.
Owner: Dept. of Earth and Planetary Science, John Hopkins University
Wavelength Range: All
Origin: Collected at John Hopkins University IR Spectroscopy Lab.
Description: Ice. The spectrum from 0.3 to 2.08 micrometers was modeled, while
Measurement: Directional (10 Degree) Hemispherical Reflectance
X Units: Wavelength (micrometers)
Y Units: Reflectance (percent)
wavelength	value
0.3	2.05
0.304	2.04
0.308	2.03
0.312	2.02
0.316	2.02
0.32	2.01
0.324	2
0.328	1.99
0.332	1.99
0.336	1.98
0.34	1.97
0.344	1.96
0.348	1.96
0.352	1.95
0.356	1.95
0.36	1.94
0.364	1.94
0.368	1.93
0.372	1.93
0.376	1.92
0.38	1.92
0.384	1.91
0.388	1.91
0.392	1.9
0.396	1.9
0.4	1.9
0.404	1.89
0.408	1.89
0.412	1.89
0.416	1.88
0.42	1.88
0.424	1.88
0.428	1.87
0.432	1.87
0.436	1.87
0.44	1.87
0.444	1.86
0.448	1.86
0.452	1.86
0.456	1.85
0.46	1.85
0.464	1.85
0.468	1.85
0.472	1.85
0.476	1.84
0.48	1.84
0.484	1.84
0.488	1.84
0.492	1.84
0.496	1.83
0.5	1.83
0.504	1.83
0.508	1.83
0.512	1.83
0.516	1.82
0.52	1.82
0.524	1.82
0.528	1.82
0.532	1.82
0.536	1.82
0.54	1.81
0.544	1.81
0.548	1.81
0.552	1.81
0.556	1.81
0.56	1.81
0.564	1.81
0.568	1.8
0.572	1.8
0.576	1.8
0.58	1.8
0.584	1.8
0.588	1.8
0.592	1.8
0.596	1.8
0.6	1.79
0.604	1.79
0.608	1.79
0.612	1.79
0.616	1.79
0.62	1.79
0.624	1.79
0.628	1.79
0.632	1.79
0.636	1.78
0.64	1.78
0.644	1.78
0.648	1.78
0.652	1.78
0.656	1.78
0.66	1.78
0.664	1.78
0.668	1.78
0.672	1.78
0.676	1.78
0.68	1.77
0.684	1.77
0.688	1.77
0.692	1.77
0.696	1.77
0.7	1.77
0.704	1.77
0.708	1.77
0.712	1.77
0.716	1.77
0.72	1.77
0.724	1.76
0.728	1.76
0.732	1.76
0.736	1.76
0.74	1.76
0.744	1.76
0.748	1.76
0.752	1.76
0.756	1.76
0.76	1.76
0.764	1.76
0.768	1.76
0.772	1.76
0.776	1.75
0.78	1.75
0.784	1.75
0.788	1.75
0.792	1.75
0.796	1.75
0.8	1.75
0.84	1.74
0.88	1.74
0.92	1.73
0.96	1.72
1	1.72
1.04	1.71
1.08	1.7
1.12	1.7
1.16	1.69
1.2	1.68
1.24	1.67
1.28	1.67
1.32	1.66
1.36	1.65
1.4	1.64
1.44	1.63
1.48	1.62
1.52	1.62
1.56	1.61
1.6	1.6
1.64	1.59
1.68	1.57
1.72	1.56
1.76	1.55
1.8	1.53
1.84	1.52
1.88	1.5
1.92	1.48
1.96	1.46
2	1.45
2.04	1.44
2.08	1.42
2.12	1.4
2.16	1.37
2.2	1.34
2.24	1.31
2.28	1.28
2.32	1.24
2.36	1.2
2.4	1.16
2.44	1.11
2.48	1.06
2.52	1
2.56	0.93
2.6	0.84
2.64	0.74
2.68	0.62
2.72	0.49
2.76	0.33
2.8	0.18
2.84	0.12
2.88	0.38
2.92	1.45
2.96	2.68
3	4.28
3.04	6.69
3.08	8.53
3.12	8.17
3.16	7.84
3.2	7.06
3.24	6.13
3.28	5.41
3.32	4.88
3.36	4.45
3.4	4.09
3.44	3.79
3.48	3.54
3.52	3.34
3.56	3.17
3.6	3.04
3.64	2.92
3.68	2.83
3.72	2.74
3.76	2.66
3.8	2.59
3.84	2.53
3.88	2.48
3.92	2.43
3.96	2.39
4	2.35
4.04	2.32
4.08	2.28
4.12	2.25
4.16	2.22
4.2	2.19
4.24	2.16
4.28	2.14
4.32	2.12
4.36	2.1
4.4	2.1
4.44	2.11
4.48	2.12
4.52	2.14
4.56	2.17
4.6	2.19
4.64	2.18
4.68	2.17
4.72	2.16
4.76	2.14
4.8	2.11
4.84	2.09
4.88	2.07
4.92	2.05
4.96	2.02
5	2
5.2	1.89
5.4	1.77
5.6	1.66
5.8	1.6
6	1.75
6.2	1.92
6.4	1.99
6.6	1.94
6.8	1.95
7	1.95
7.2	1.95
7.4	1.92
7.6	1.91
7.8	1.9
8	1.87
8.2	1.79
8.4	1.69
8.6	1.61
8.8	1.53
9	1.46
9.2	1.38
9.4	1.29
9.6	1.18
9.8	1.05
10	0.87
10.2	0.71
10.4	0.59
10.6	0.6
10.8	0.94
11	1.58
11.2	2.29
11.4	3.03
11.6	3.6
11.8	4.16
12	4.64
12.2	5.07
12.4	5.39
12.6	5.65
12.8	5.85
13	5.98
13.2	6.06
13.4	6.07
13.6	6.07
13.8	6.06
14	6.02
14.2	5.95
14.4	5.82
14.6	5.67
14.8	5.52
15	5.37
