Name: Medium Granular Snow
Type: Frost, Snow and Ice
Class: Snow
Subclass: Medium Granular
Particle Size: 82 micrometers effective size.
Sample No.: Original filename MEDGRAN.SNW.
Owner: Dept. of Earth and Planetary Science, John Hopkins University
Wavelength Range: All
Origin: John Hopkins University IR Spectroscopy Lab.
Description: Medium granular snow.  The spectrum from 0.3 to 2.08 micrometers
Measurement: Directional (10 Degree) Hemispherical Reflectance
X Units: Wavelength (micrometers)
Y Units: Reflectance (percent)
wavelength	value
0.3	96.641
0.31	96.878
0.32	97.052
0.34	97.344
0.35	97.455
0.36	97.622
0.37	97.647
0.38	97.74
0.4	97.86
0.41	98.015
0.42	98.281
0.43	98.275
0.44	98.427
0.46	98.492
0.47	98.657
0.48	98.37
0.49	98.513
0.5	98.454
0.52	98.353
0.53	98.317
0.54	98.102
0.55	98.121
0.56	98.048
0.58	97.888
0.59	97.772
0.6	97.639
0.61	97.207
0.62	96.976
0.64	96.67
0.65	96.306
0.66	95.945
0.67	95.764
0.68	95.545
0.7	95.144
0.71	94.627
0.72	94.126
0.73	93.914
0.74	93.394
0.76	92.784
0.77	91.878
0.78	91.205
0.79	90.395
0.84	89.767
0.96	79.774
1.08	72.433
1.2	55.03
1.32	45.158
1.44	6.447
1.56	2.5541
1.68	8.1062
1.8	15.585
1.92	1.7403
2.04	0.6561
2.16	4.4144
2.25	9.6533
2.25	9.6003
2.26	9.3611
2.26	8.9886
2.27	8.5126
2.27	7.9255
2.28	7.2596
2.29	6.5965
2.29	5.9235
2.3	5.3241
2.31	4.7624
2.31	4.2994
2.32	3.8662
2.32	3.4939
2.33	3.2029
2.34	2.9545
2.34	2.7321
2.35	2.5479
2.36	2.4359
2.36	2.307
2.37	2.2303
2.37	2.1713
2.38	2.1046
2.39	2.0716
2.39	2.0307
2.4	1.9549
2.41	1.9651
2.41	1.9187
2.42	1.8661
2.43	1.8424
2.44	1.8211
2.44	1.8017
2.45	1.7368
2.46	1.6975
2.46	1.6743
2.47	1.6198
2.48	1.5924
2.48	1.5554
2.49	1.5409
2.5	1.5056
2.51	1.4953
2.51	1.4652
2.52	1.4721
2.53	1.4675
2.54	1.4358
2.54	1.4157
2.55	1.4289
2.56	1.4399
2.57	1.4529
2.57	1.4481
2.58	1.4382
2.59	1.4271
2.6	1.4022
2.6	1.3858
2.61	1.3534
2.62	1.3221
2.63	1.2653
2.64	1.2253
2.64	1.1578
2.65	1.0927
2.66	1.0244
2.67	0.9378
2.68	0.8744
2.68	0.8121
2.69	0.7273
2.7	0.6657
2.71	0.5755
2.72	0.5489
2.73	0.5286
2.74	0.4658
2.74	0.4329
2.75	0.4326
2.76	0.4189
2.77	0.3856
2.78	0.3782
2.79	0.3623
2.8	0.3348
2.81	0.3176
2.82	0.3086
2.83	0.2936
2.83	0.289
2.84	0.2645
2.85	0.2832
2.86	0.2944
2.87	0.3192
2.88	0.3777
2.89	0.4388
2.9	0.552
2.91	0.7032
2.92	0.8205
2.93	0.9396
2.94	1.0842
2.95	1.1675
2.96	1.2715
2.97	1.3885
2.98	1.4437
2.99	1.5698
3	1.6949
3.01	1.8898
3.02	2.1245
3.03	2.4331
3.04	2.8134
3.05	3.187
3.07	3.5442
3.08	3.7777
3.09	3.8118
3.1	3.6626
3.11	3.4532
3.12	3.2565
3.13	3.107
3.14	3.0308
3.16	3.0083
3.17	2.9815
3.18	2.9287
3.19	2.8593
3.2	2.7409
3.21	2.6083
3.23	2.4603
3.24	2.3573
3.25	2.2415
3.26	2.1411
3.27	2.0522
3.29	2.0018
3.3	1.9492
3.31	1.8983
3.33	1.8557
3.34	1.8187
3.35	1.8071
3.36	1.7683
3.38	1.7532
3.39	1.7379
3.4	1.7124
3.42	1.696
3.43	1.7062
3.44	1.6668
3.46	1.6587
3.47	1.6532
3.49	1.644
3.5	1.6303
3.51	1.6279
3.53	1.6054
3.54	1.5853
3.56	1.5848
3.57	1.573
3.59	1.5639
3.6	1.5455
3.62	1.5431
3.63	1.5227
3.65	1.5064
3.66	1.5112
3.68	1.4953
3.7	1.4734
3.71	1.4524
3.73	1.4626
3.74	1.4391
3.76	1.418
3.78	1.4015
3.79	1.3951
3.81	1.3804
3.83	1.3671
3.84	1.3454
3.86	1.3449
3.88	1.3203
3.89	1.3117
3.91	1.3039
3.93	1.2956
3.95	1.2788
3.97	1.2656
3.98	1.2492
4	1.2468
4.02	1.2381
4.04	1.2158
4.06	1.2104
4.08	1.2094
4.1	1.1947
4.12	1.1905
4.14	1.1923
4.16	1.186
4.18	1.1793
4.2	1.153
4.22	1.1448
4.24	1.1457
4.26	1.144
4.28	1.141
4.3	1.1365
4.32	1.1256
4.35	1.1126
4.37	1.1111
4.39	1.1074
4.41	1.1059
4.43	1.1233
4.46	1.1215
4.48	1.1251
4.5	1.1279
4.53	1.1358
4.55	1.1517
4.58	1.1647
4.6	1.1694
4.62	1.1815
4.65	1.1834
4.67	1.1829
4.7	1.176
4.73	1.1893
4.75	1.1943
4.78	1.1834
4.8	1.1831
4.83	1.1718
4.86	1.181
4.89	1.1915
4.91	1.1775
4.94	1.1839
4.97	1.1852
5	1.1724
5.03	1.1713
5.06	1.168
5.09	1.1588
5.12	1.1455
5.15	1.1308
5.18	1.1175
5.21	1.1106
5.24	1.1021
5.27	1.0983
5.31	1.0809
5.34	1.0728
5.37	1.0728
5.41	1.06
5.44	1.0493
5.47	1.0446
5.51	1.0264
5.54	1.007
5.58	1.0053
5.62	1.0041
5.65	0.9731
5.69	0.9603
5.73	0.9394
5.77	0.9357
5.81	0.9271
5.84	0.9274
5.88	0.9324
5.92	0.902
5.97	0.8959
6.01	0.9084
6.05	0.8913
6.09	0.889
6.14	0.9025
6.18	0.9072
6.22	0.911
6.27	0.9165
6.31	0.9205
6.36	0.9278
6.41	0.9383
6.46	0.9677
6.5	0.9807
6.55	0.9935
6.6	0.9973
6.65	0.9961
6.71	1.0017
6.76	0.9948
6.81	0.9889
6.87	0.9871
6.92	1.0086
6.98	1.0126
7.03	1.02
7.09	1.0124
7.15	1.0304
7.21	1.0145
7.27	1.0006
7.33	0.9835
7.4	0.9745
7.46	0.9685
7.52	0.9646
7.59	0.9518
7.66	0.9501
7.73	0.9516
7.8	0.9437
7.87	0.9527
7.94	0.9494
8.01	0.9409
8.09	0.939
8.16	0.9393
8.24	0.9605
8.32	0.9501
8.4	0.9158
8.48	0.9266
8.57	0.9056
8.65	0.8985
8.74	0.903
8.83	0.894
8.92	0.888
9.02	0.8816
9.11	0.8395
9.21	0.8499
9.31	0.8642
9.41	0.8113
9.51	0.7748
9.62	0.7365
9.73	0.6861
9.84	0.6654
9.95	0.5977
10.07	0.5665
10.18	0.5108
10.31	0.4817
10.43	0.471
10.56	0.5233
10.69	0.6413
10.82	0.7995
10.96	1.0007
11.1	1.1943
11.25	1.3863
11.39	1.5436
11.55	1.6684
11.7	1.8041
11.86	1.9287
12.03	2.0314
12.2	2.1385
12.37	2.2331
12.55	2.3044
12.74	2.334
12.93	2.3798
13.12	2.3746
13.33	2.3421
13.54	2.3294
13.75	2.3087
13.97	2.2814
