Name: Sea water
Type: Water
Class: Sea Water
Particle Size: Liquid
Owner: Dept. of Earth and Planetary Science, John Hopkins University
Wavelength Range: IR
Origin: JHU IR Spectroscopy Lab. Original filename SEAWATER.
Description: Sea water.
Measurement: Directional (10 Degree) Hemispherical Reflectance
X Units: Wavelength (micrometers)
Y Units: Reflectance (percent)
wavelength	value
14.0112	3.6548
13.7876	3.479
13.5711	3.1958
13.3612	2.9548
13.1577	2.7224
12.9604	2.4548
12.7688	2.2561
12.5829	2.0034
12.4023	1.7827
12.2268	1.6111
12.0562	1.4604
11.8903	1.262
11.7289	1.1675
11.5718	1.0547
11.4188	0.9763
11.2699	0.9556
11.1248	0.908
10.9834	0.9053
10.8455	0.9243
10.7111	0.9436
10.5799	0.99
10.4519	1.0207
10.327	1.0627
10.205	1.1248
10.0859	1.1421
9.96952	1.2168
9.85581	1.2488
9.74465	1.2998
9.63597	1.3647
9.52969	1.3765
9.42574	1.4468
9.32402	1.49
9.22447	1.4998
9.12703	1.51
9.03163	1.5347
8.9382	1.5461
8.84668	1.5764
8.75701	1.6018
8.66915	1.6074
8.58304	1.6238
8.49861	1.6543
8.41583	1.679
8.33465	1.696
8.25502	1.7112
8.1769	1.73
8.10024	1.7427
8.02501	1.7544
7.95115	1.7622
7.87865	1.7576
7.80746	1.7817
7.73754	1.7905
7.66886	1.7947
7.6014	1.7886
7.53511	1.8386
7.46996	1.7068
7.40593	1.8621
7.34299	1.7065
7.28112	1.7461
7.22027	1.8704
7.16044	1.7212
7.10158	1.9543
7.04369	1.5666
6.98673	1.875
6.93069	2.0112
6.87554	1.7322
6.82125	1.8064
6.76782	1.8831
6.71523	1.6191
6.66344	1.925
6.61244	1.8359
6.56222	1.6128
6.51276	1.854
6.46403	1.988
6.41603	1.0708
6.36874	1.8503
6.32214	2.3391
6.27621	2.3599
6.23095	2.4482
6.18634	1.9304
6.14236	2.2248
6.099	2.1125
6.05625	1.4512
6.0141	1.519
5.97253	1.3066
5.93153	1.0918
5.89108	1.0317
5.85119	1.3931
5.81183	1.3896
5.773	1.2395
5.73468	1.4624
5.69687	1.5752
5.65956	1.5908
5.62273	1.697
5.58637	1.6284
5.55049	1.6724
5.51506	1.8142
5.48008	1.7197
5.44554	1.8835
5.41143	1.8628
5.37775	1.9531
5.34449	1.8506
5.31163	1.9873
5.27918	1.9795
5.24712	2.0188
5.21544	1.9065
5.18415	2.0554
5.15323	2.0237
5.12268	2.0776
5.09249	2.0933
5.06265	2.113
5.03316	2.1103
5.00401	2.125
4.9752	2.1411
4.94671	2.1318
4.91855	2.1455
4.89071	2.1462
4.86318	2.1479
4.83596	2.1553
4.80905	2.1497
4.78243	2.147
4.7561	2.1543
4.73007	2.1536
4.70431	2.1567
4.67884	2.1482
4.65364	2.1582
4.62871	2.154
4.60404	2.1626
4.57964	2.165
4.5555	2.157
4.5316	2.1538
4.50796	2.1716
4.48456	2.1699
4.46141	2.1826
4.43849	2.1846
4.4158	2.1912
4.39335	2.2009
4.37112	2.1982
4.34912	2.2102
4.32734	2.2143
4.30578	2.218
4.28442	2.2248
4.26328	2.2202
4.24235	2.2395
4.22162	2.2441
4.2011	2.2498
4.18077	2.2598
4.16064	2.2717
4.1407	2.2815
4.12095	2.29
4.10139	2.3035
4.08201	2.3098
4.06282	2.3154
4.0438	2.3303
4.02496	2.3328
4.0063	2.3376
3.98781	2.3498
3.96949	2.3545
3.95134	2.3669
3.93335	2.3694
3.91552	2.3916
3.89786	2.405
3.88035	2.4202
3.86301	2.4172
3.84581	2.4434
3.82877	2.4473
3.81188	2.4626
3.79513	2.4817
3.77854	2.488
3.76209	2.4995
3.74578	2.5159
3.72961	2.5227
3.71358	2.5373
3.69768	2.5478
3.68193	2.5703
3.6663	2.5823
3.65081	2.5937
3.63545	2.6125
3.62022	2.6326
3.60511	2.6523
3.59013	2.6626
3.57528	2.6663
3.56054	2.6872
3.54593	2.7002
3.53144	2.7231
3.51706	2.7541
3.50281	2.7781
3.48866	2.7991
3.47463	2.8274
3.46072	2.855
3.44691	2.874
3.43321	2.9101
3.41963	2.9416
3.40615	2.9868
3.39277	3.0078
3.3795	3.0395
3.36633	3.0801
3.35327	3.1287
3.34031	3.1492
3.32744	3.2121
3.31468	3.2524
3.30201	3.283
3.28944	3.3562
3.27696	3.3999
3.26458	3.4531
3.25229	3.5088
3.2401	3.5637
3.22799	3.5935
3.21598	3.6724
3.20405	3.706
3.19221	3.769
3.18046	3.822
3.1688	3.8708
3.15722	3.9106
3.14572	3.9407
3.13431	3.9661
3.12298	3.9722
3.11174	3.9653
3.10057	3.9675
3.08948	3.9277
3.07848	3.9048
3.06755	3.8794
3.05669	3.8191
3.04592	3.8074
3.03522	3.7429
3.02459	3.7475
3.01404	3.7075
3.00356	3.6523
2.99316	3.6047
2.98283	3.5784
2.97257	3.5051
2.96237	3.4158
2.95225	3.3235
2.9422	3.1562
2.93221	3.0351
2.9223	2.8186
2.91245	2.6775
2.90266	2.4517
2.89294	2.3076
2.88329	2.1033
2.8737	1.9326
2.86417	1.7502
2.85471	1.5366
2.84531	1.4468
2.83597	1.2529
2.82669	1.1475
2.81747	1.0156
2.80832	0.9084
2.79922	0.8765
2.79018	0.771
2.7812	0.6943
2.77227	0.6255
2.76341	0.5815
2.7546	0.5105
2.74584	0.6252
2.73715	0.5652
2.7285	0.6606
2.71991	0.5266
2.71138	0.6128
2.7029	0.8228
2.69447	0.7415
2.68609	0.9075
2.67777	0.7898
2.66949	0.79
2.66127	1.0518
2.6531	1.0898
2.64498	1.1763
2.6369	1.3064
2.62888	1.1167
2.62091	1.0977
2.61298	1.2581
2.6051	1.0359
2.59727	1.2375
2.58949	1.2881
2.58175	1.2771
2.57406	1.2578
2.56641	1.4397
2.55881	1.4636
2.55126	1.4141
2.54375	1.4465
2.53628	1.4685
2.52886	1.5493
2.52148	1.5864
2.51414	1.5876
2.50684	1.6147
2.49959	1.6121
2.49238	1.6189
2.48521	1.6411
2.47809	1.6611
2.471	1.6645
2.46395	1.6636
2.45695	1.6929
2.44998	1.6916
2.44305	1.7185
2.43616	1.7095
2.42931	1.7266
2.4225	1.7395
2.41573	1.7317
2.40899	1.7468
2.4023	1.762
2.39563	1.7856
2.38901	1.7778
2.38242	1.7895
2.37587	1.7878
2.36936	1.8118
2.36288	1.8083
2.35643	1.8318
2.35002	1.8203
2.34365	1.8428
2.33731	1.8101
2.331	1.854
2.32473	1.8357
2.31849	1.8413
2.31229	1.845
2.30612	1.8445
2.29998	1.8645
2.29387	1.8376
2.2878	1.8708
2.28176	1.8603
2.27575	1.8735
2.26977	1.874
2.26382	1.876
2.25791	1.8938
2.25202	1.8962
2.24617	1.9204
2.24034	1.9038
2.23455	1.9048
2.22878	1.9028
2.22305	1.9143
2.21735	1.9211
2.21167	1.9431
2.20602	1.9426
2.2004	1.9338
2.19482	1.9602
2.18925	1.9224
2.18372	1.9258
2.17822	1.9639
2.17274	1.9653
2.16729	1.9673
2.16187	1.9338
2.15647	1.9646
2.1511	1.9465
2.14576	1.9695
2.14044	1.9998
2.13515	1.978
2.12989	1.9595
2.12465	1.9954
2.11944	1.9824
2.11426	2.0112
2.10909	2.0098
2.10396	1.999
2.09885	1.9939
2.09376	1.9976
2.0887	1.9907
2.08366	1.9922
