Name: Tap water
Type: Water
Class: Tap Water
Particle Size: Liquid
Owner: Dept. of Earth and Planetary Science, John Hopkins University
Wavelength Range: IR
Origin: JHU IR Spectroscopy Lab. Original filename TAPWATER.
Description: Tap water.
Measurement: Directional (10 Degree) Hemispherical Reflectance
X Units: Wavelength (micrometers)
Y Units: Reflectance (percent)
wavelength	value
14.011	3.8716
13.715	3.5355
13.43	3.2051
13.158	2.8555
12.896	2.5248
12.644	2.1911
12.402	1.8786
12.169	1.603
11.945	1.3846
11.729	1.1934
11.52	1.0407
11.319	0.9452
11.125	0.9008
10.937	0.8903
10.755	0.903
10.58	0.941
10.41	1.0024
10.245	1.0687
10.086	1.1274
9.9313	1.1886
9.7814	1.251
9.636	1.2965
9.4948	1.3491
9.3577	1.4023
9.2245	1.453
9.095	1.4898
8.9691	1.5422
8.8467	1.5666
8.7275	1.5961
8.6116	1.6367
8.4986	1.6434
8.3886	1.6877
8.2814	1.6989
8.1769	1.7173
8.075	1.7327
7.9756	1.7468
7.8786	1.7465
7.784	1.7597
7.6916	1.7805
7.6014	1.7647
7.5133	1.8289
7.4272	1.8396
7.343	1.7523
7.2607	1.8119
7.1803	1.7475
7.1016	1.9006
7.0246	1.7703
6.9493	1.8044
6.8755	1.5877
6.8034	1.6956
6.7327	1.8451
6.6634	1.749
6.5956	1.6731
6.5292	1.8511
6.464	1.8449
6.4002	1.6623
6.3376	2.0207
6.2762	2.3471
6.216	2.4258
6.157	2.1899
6.099	1.9105
6.0421	1.4266
5.9863	1.3319
5.9315	1.1247
5.8777	0.9883
5.8249	1.1477
5.773	1.246
5.722	1.3604
5.6719	1.5611
5.6227	1.6224
5.5744	1.576
5.5268	1.7703
5.4801	1.7255
5.4341	1.7889
5.3889	1.9293
5.3445	1.8171
5.3008	1.9196
5.2578	1.9935
5.2154	1.9248
5.1738	2.0401
5.1328	2.0265
5.0925	2.048
5.0528	2.0856
5.0137	2.0583
4.9752	2.1092
4.9373	2.1126
4.9	2.1121
4.8632	2.1222
4.827	2.1279
4.7913	2.1277
4.7561	2.1287
4.7215	2.1267
4.6873	2.1303
4.6536	2.1308
4.6205	2.1334
4.5877	2.1313
4.5555	2.1334
4.5237	2.1375
4.4923	2.1473
4.4614	2.1564
4.4309	2.1602
4.4008	2.1657
4.3711	2.175
4.3418	2.1813
4.3129	2.1923
4.2844	2.2016
4.2563	2.2057
4.2285	2.2148
4.2011	2.2255
4.174	2.2394
4.1473	2.2507
4.1209	2.2583
4.0949	2.2705
4.0692	2.2916
4.0438	2.2978
4.0187	2.3102
3.994	2.3292
3.9695	2.3358
3.9453	2.3528
3.9214	2.3631
3.8979	2.3804
3.8746	2.399
3.8515	2.4122
3.8288	2.4208
3.8063	2.4449
3.7841	2.4603
3.7621	2.4767
3.7404	2.4902
3.7189	2.5129
3.6977	2.5349
3.6767	2.5528
3.656	2.5718
3.6355	2.5846
3.6152	2.6127
3.5951	2.6356
3.5753	2.6605
3.5557	2.6871
3.5363	2.716
3.5171	2.7502
3.4981	2.7737
3.4793	2.8165
3.4607	2.8572
3.4423	2.8952
3.4241	2.9404
3.4061	2.9852
3.3883	3.0237
3.3707	3.0749
3.3533	3.1268
3.336	3.1879
3.3189	3.2376
3.302	3.3032
3.2853	3.3699
3.2687	3.434
3.2523	3.5168
3.2361	3.5912
3.22	3.6601
3.204	3.7209
3.1883	3.8147
3.1727	3.8879
3.1572	3.9479
3.1419	3.9755
3.1268	3.9939
3.1117	3.9903
3.0969	3.9831
3.0821	3.9398
3.0675	3.9042
3.0531	3.831
3.0388	3.7949
3.0246	3.7328
3.0105	3.6721
2.9966	3.6238
2.9828	3.5685
2.9692	3.4618
2.9556	3.3386
2.9422	3.1639
2.9289	2.9536
2.9157	2.711
2.9027	2.4107
2.8897	2.2119
2.8769	1.9669
2.8642	1.7375
2.8516	1.4759
2.8391	1.3006
2.8267	1.142
2.8144	0.9714
2.8022	0.779
2.7902	0.7299
2.7782	0.6735
2.7664	0.5584
2.7546	0.5201
2.7429	0.5187
2.7314	0.6172
2.7199	0.5299
2.7085	0.6663
2.6973	0.7685
2.6861	0.8862
2.675	0.8309
2.664	0.8682
2.6531	1.0807
2.6423	1.1951
2.6315	1.0544
2.6209	1.1364
2.6103	1.2101
2.5999	1.2845
2.5895	1.2659
2.5792	1.2869
2.569	1.3412
2.5588	1.3812
2.5487	1.4066
2.5388	1.4838
2.5289	1.5063
2.519	1.5353
2.5093	1.5671
2.4996	1.587
2.49	1.5984
2.4805	1.6195
2.471	1.6279
2.4616	1.6446
2.4523	1.657
2.4431	1.6752
2.4339	1.6841
2.4248	1.6874
2.4157	1.7106
2.4068	1.7162
2.3979	1.7315
2.389	1.7315
2.3802	1.7509
2.3715	1.7506
2.3629	1.7698
2.3543	1.7695
2.3458	1.7901
2.3373	1.7851
2.3289	1.7882
2.3206	1.8006
2.3123	1.8126
2.3041	1.8002
2.2959	1.826
2.2878	1.8183
2.2798	1.8284
2.2718	1.8449
2.2638	1.8604
2.2559	1.8571
2.2481	1.8588
2.2403	1.8729
2.2326	1.866
2.225	1.8707
2.2173	1.882
2.2098	1.8882
2.2023	1.8779
2.1948	1.8932
2.1874	1.8801
2.18	1.904
2.1727	1.903
2.1655	1.9142
2.1583	1.9363
2.1511	1.9107
2.144	1.9291
2.1369	1.9351
2.1299	1.9435
2.1229	1.9296
2.116	1.9709
2.1091	1.9566
2.1023	1.96
2.0955	1.9638
2.0887	1.9631
2.082	1.9344
2.06	1.9227
2.028	1.9163
1.996	1.7329
1.964	1.8931
1.932	1.6513
1.9	1.8976
1.868	1.9118
1.836	1.9166
1.804	1.9865
1.772	2.0805
1.74	1.9898
1.708	2.2339
1.676	1.989
1.644	2.0787
1.612	2.0751
1.58	2.0796
1.548	2.0828
1.516	2.1817
1.484	2.0896
1.452	2.1817
1.42	2.1791
1.388	2.1114
1.356	2.1235
1.324	2.039
1.292	2.134
1.26	2.1409
1.228	2.3258
1.196	2.2411
1.164	2.3369
1.132	2.4355
1.1	2.3709
1.068	2.3787
1.036	2.468
1.004	2.3784
0.972	2.4584
0.94	2.5379
0.908	2.539
0.876	2.6125
0.844	2.5135
0.812	2.682
0.795	2.6761
0.787	2.6525
0.779	2.6541
0.771	2.6624
0.763	2.5695
0.755	2.7419
0.747	2.7401
0.739	2.6641
0.731	2.7522
0.723	2.9131
0.715	2.7449
0.707	2.7449
0.699	2.6553
0.691	2.685
0.683	2.689
0.675	2.776
0.667	2.5942
0.659	2.687
0.651	2.6849
0.643	2.6704
0.635	2.6019
0.627	2.5839
0.619	2.5962
0.611	2.8429
0.603	2.6746
0.595	2.7252
0.587	2.7317
0.579	2.6325
0.571	2.6746
0.563	2.687
0.555	2.7613
0.547	2.7717
0.539	2.7847
0.531	2.6991
0.523	2.8117
0.515	2.7968
0.507	2.8182
0.499	2.8282
0.491	2.5585
0.483	2.7663
0.475	2.848
0.467	2.8838
0.459	3.0426
0.451	2.8856
0.443	2.9195
0.435	2.7633
0.427	2.8719
0.419	2.8876
0.411	2.8224
0.403	2.7442
