Name: Topaz Al2SiO4(F,OH)2
Type: Mineral
Class: Silicates
Subclass: Nesosilicates (Isolated tetrahedra)
Particle Size: Coarse  (75 - 250  Micrometers)
Owner: JHU
Wavelength Range: IR
Origin: Wsakos, Namibia via Don Hoover, USGS
Description: The sample consisted of one small colorless fragment less
Measurement: Bidirectional reflectance
X Units: Wavelength (micrometers)
Y Units: Reflectance (percent)
wavelength	value
25.0442	2.771
24.3388	2.2734
23.6719	2.8772
23.0407	3.687
22.4422	5.7324
21.8741	8.2046
21.334	5.9087
20.8199	4.7956
20.33	4.4807
19.8627	4.8057
19.4163	2.8921
18.9896	3.4788
18.5812	3.2515
18.19	4.2121
17.815	1.8721
17.4551	1.1912
17.1094	1.5513
16.7772	1.8347
16.4576	3.7605
16.15	6.8105
15.8537	7.393
15.568	7.2546
15.2925	7.0371
15.0265	6.342
14.7697	3.7075
14.5214	1.8813
14.2814	0.375
14.0492	0.2927
13.8244	0.2734
13.6067	0.4873
13.3957	0.6399
13.1912	0.8096
12.9929	0.9309
12.8004	1.0369
12.6135	1.2007
12.432	1.3752
12.2557	1.6423
12.0843	2.0034
11.9176	2.5747
11.7555	3.4697
11.5977	5.3017
11.444	7.0093
11.2944	7.531
11.1487	7.3247
11.0067	6.875
10.8682	6.803
10.7332	6.6013
10.6015	7.8406
10.473	8.1892
10.3476	8.1362
10.2251	6.7717
10.1056	4.9975
9.98873	6.2729
9.87458	6.8227
9.763	5.9629
9.65392	5.4514
9.54724	5.2058
9.44291	4.5312
9.34082	3.6108
9.24091	2.5456
9.14312	1.5205
9.04739	0.781
8.95363	0.3052
8.8618	0.0933
8.77183	0.0461
8.68368	0.0962
8.59727	0.2832
8.51257	0.1743
8.42951	0.0662
8.34807	0.1155
8.26819	0.1726
8.18981	0.2595
8.11292	0.3359
8.03745	0.4355
7.96337	0.5559
7.89064	0.7205
7.81924	0.9075
7.74911	1.0776
7.68023	1.1765
7.61256	1.2742
7.54608	1.3799
7.48074	1.4944
7.41653	1.616
7.35341	1.8215
7.29136	2.0188
7.23034	2.1597
7.17033	2.279
7.11132	2.4131
7.05327	2.4487
6.99616	2.499
6.93996	2.6472
6.88467	2.8276
6.83024	2.9363
6.77667	2.9221
6.72393	2.916
6.67201	3.0439
6.62089	3.2439
6.57054	3.427
6.52095	3.5222
6.4721	3.6011
6.42398	3.7488
6.37657	3.8994
6.32986	4.0703
6.28382	4.155
6.23845	4.2595
6.19373	4.4136
6.14965	4.5596
6.10619	4.6619
6.06334	4.8696
6.02109	5.1389
5.97942	5.3376
5.93832	5.1929
5.89778	4.7827
5.8578	4.4084
5.81835	3.8535
5.77943	3.6492
5.74103	3.8396
5.70314	3.824
5.66574	3.4036
5.62883	2.7617
5.5924	1.9665
5.55644	1.4441
5.52093	1.303
5.48588	1.3479
5.45127	1.4763
5.41709	1.6111
5.38334	1.5649
5.35	1.5723
5.31708	1.7444
5.28456	1.9941
5.25243	2.4136
5.2207	3.2034
5.18934	4.0068
5.15836	4.5974
5.12775	5.019
5.09749	5.4704
5.0676	5.9297
5.03805	6.2258
5.00884	6.3972
4.97998	6.2639
4.95144	6.0427
4.92322	6.6243
4.89533	7.6321
4.86775	8.3271
4.84048	8.739
4.81351	9.0136
4.78684	9.1914
4.76047	9.2812
4.73439	9.3352
4.70859	9.3874
4.68306	9.4292
4.65782	9.4463
4.63284	9.4314
4.60814	9.4587
4.58369	9.5342
4.5595	9.5967
4.53557	9.6982
4.51188	9.7834
4.48845	9.8442
4.46525	9.8774
4.44229	9.8943
4.41957	9.895
4.39708	9.8281
4.37481	9.6118
4.35277	8.9905
4.33096	7.5356
4.30935	6.4104
4.28797	8.1365
4.26679	9.2273
4.24583	9.7524
4.22506	9.9873
4.2045	10.1003
4.18414	10.1509
4.16398	10.1892
4.14401	10.2097
4.12423	10.2282
4.10464	10.2475
4.08523	10.2856
4.066	10.2925
4.04696	10.2597
4.02809	10.0871
4.0094	10.2031
3.99088	10.3196
3.97253	10.3498
3.95435	10.3572
3.93634	10.3452
3.91848	10.3335
3.90079	10.2607
3.88326	10.1328
3.86589	10.0088
3.84867	9.9612
3.8316	9.9907
3.81468	10.0393
3.79791	10.0847
3.78129	10.1489
3.76482	10.2019
3.74848	10.239
3.73229	10.2492
3.71624	10.0454
3.70032	10.2466
3.68454	10.2131
3.6689	10.1755
3.65338	10.1318
3.638	10.102
3.62275	10.0849
3.60762	10.093
3.59262	10.0925
3.57775	10.0888
3.56299	10.0801
3.54836	10.0835
3.53385	10.0925
3.51945	10.0732
3.50517	9.9646
3.49101	10.0613
3.47696	10.1057
3.46303	10.1142
3.4492	10.0764
3.43549	10.0095
3.42188	9.8745
3.40838	9.9563
3.39499	10.0608
3.38171	10.0757
3.36852	10.1198
3.35544	10.1533
3.34246	10.1635
3.32958	10.1465
3.3168	10.1216
3.30411	10.1064
3.29153	10.0989
3.27903	10.0771
3.26664	10.0486
3.25433	10.0083
3.24212	9.9731
3.23	9.9572
3.21797	9.9507
3.20603	9.9082
3.19418	9.8762
3.18241	9.8435
3.17074	9.7766
3.15914	9.7614
3.14763	9.7402
3.13621	9.7175
3.12487	9.6946
3.11361	9.6277
3.10243	9.5473
3.09133	9.4148
3.0803	9.3159
3.06936	9.249
3.0585	9.126
3.04771	8.9309
3.037	8.6723
3.02636	8.5371
3.0158	8.3005
3.00531	7.9533
2.99489	7.8093
2.98454	7.5149
2.97427	7.5444
2.96407	7.5139
2.95393	7.8061
2.94387	8.0351
2.93387	8.1069
2.92394	7.8891
2.91408	7.8049
2.90429	7.6977
2.89456	7.6194
2.88489	7.6723
2.87529	7.5217
2.86576	7.5224
2.85628	8.1057
2.84687	8.3872
2.83752	8.4109
2.82823	8.1362
2.81901	8.1618
2.80984	8.1438
2.80073	7.9075
2.79168	7.5317
2.78269	7.071
2.77376	6.4863
2.76488	5.3186
2.75606	3.0146
2.7473	0.8525
2.73859	0.5168
2.72994	2.5471
2.72134	5.1914
2.7128	6.7102
2.70431	7.5505
2.69587	8.062
2.68748	8.4033
2.67915	8.6028
2.67087	8.6902
2.66264	8.7773
2.65446	8.7729
2.64633	8.7107
2.63825	8.6015
2.63021	8.3237
2.62223	7.865
2.6143	7.8662
2.60641	7.7781
2.59857	7.6877
2.59078	7.9558
2.58304	8.0735
2.57534	7.8059
2.56768	7.3855
2.56008	6.9402
2.55251	6.3367
2.54499	6.1653
2.53752	6.2436
2.53009	6.2148
2.5227	6.479
2.51536	6.7927
2.50806	7.2859
2.5008	7.3301
2.49358	7.8086
2.4864	8.0451
2.47927	8.2798
2.47218	8.289
2.46512	8.3955
2.45811	8.6386
2.45114	8.8945
2.4442	9.0388
2.43731	9.1101
2.43045	9.0117
2.42363	9.0366
2.41685	9.0498
2.41011	9.2004
2.40341	9.32
2.39674	9.3667
2.39011	9.4282
2.38352	9.4743
2.37696	9.4643
2.37044	9.4726
2.36395	9.549
2.35751	9.6101
2.35109	9.6357
2.34471	9.6064
2.33836	9.5874
2.33205	9.6113
2.32578	9.6299
2.31953	9.727
2.31332	9.7973
2.30714	9.8574
2.301	9.9331
2.29489	10.018
2.28881	10.1631
2.28276	10.2114
2.27675	10.208
2.27076	10.1411
2.26481	9.9541
2.25889	9.8349
2.253	10.1953
2.24714	10.2353
2.24131	10.2871
2.23551	10.2983
2.22974	10.2641
2.224	10.1709
2.21829	10.0595
2.21261	9.9529
2.20696	9.9746
2.20134	9.9775
2.19574	10.041
2.19018	10.0957
2.18464	10.0771
2.17913	9.9902
2.17365	9.9084
2.16819	9.8901
2.16277	9.8843
2.15737	9.6565
2.15199	9.4724
2.14665	9.6191
2.14133	9.7243
2.13603	9.9001
2.13077	10.1196
2.12552	10.2024
2.12031	10.2055
2.11512	10.1938
2.10995	10.1108
2.10481	10.0124
2.0997	9.7593
2.09461	9.2466
2.08954	7.9304
2.0845	5.4009
2.07948	5.7671
