Name: Topaz Al2SiO4(F,OH)2
Type: Mineral
Class: Silicates
Subclass: Nesosilicates (Isolated tetrahedra)
Particle Size: Fine  (0 - 74  Micrometers)
Owner: JHU
Wavelength Range: IR
Origin: Wsakos, Namibia via Don Hoover, USGS
Description: The sample consisted of one small colorless fragment less
Measurement: Bidirectional reflectance
X Units: Wavelength (micrometers)
Y Units: Reflectance (percent)
wavelength	value
25.0442	1.3037
24.3388	1.8652
23.6719	1.6035
23.0407	2.1038
22.4422	2.416
21.8741	2.7417
21.334	2.1621
20.8199	1.8711
20.33	1.873
19.8627	1.8926
19.4163	1.5703
18.9896	1.7021
18.5812	1.9236
18.19	2.1772
17.815	1.1455
17.4551	1.1323
17.1094	1.1025
16.7772	1.3506
16.4576	1.7017
16.15	2.2041
15.8537	2.3306
15.568	2.3589
15.2925	2.3506
15.0265	2.3147
14.7697	2.0793
14.5214	1.3977
14.2814	0.51
14.0492	0.3845
13.8244	0.8955
13.6067	1.8552
13.3957	2.3611
13.1912	2.4263
12.9929	1.835
12.8004	2.4631
12.6135	2.4978
12.432	2.2422
12.2557	1.9199
12.0843	1.6436
11.9176	1.4683
11.7555	1.5644
11.5977	1.9961
11.444	2.3074
11.2944	2.3486
11.1487	2.2922
11.0067	2.1897
10.8682	2.2073
10.7332	2.1619
10.6015	2.5066
10.473	2.6313
10.3476	2.6374
10.2251	2.5405
10.1056	2.2615
9.98873	2.3821
9.87458	2.8303
9.763	3.1291
9.65392	3.3708
9.54724	3.6553
9.44291	3.5652
9.34082	3.1853
9.24091	2.5537
9.14312	1.7366
9.04739	1.0234
8.95363	0.4888
8.8618	0.2095
8.77183	0.1711
8.68368	0.3201
8.59727	0.3425
8.51257	0.3245
8.42951	0.2944
8.34807	0.5749
8.26819	0.9951
8.18981	1.4924
8.11292	2.0195
8.03745	2.4905
7.96337	2.9997
7.89064	3.5474
7.81924	4.1045
7.74911	4.5849
7.68023	4.8579
7.61256	5.1294
7.54608	5.3984
7.48074	5.6675
7.41653	5.9458
7.35341	6.3054
7.29136	6.6238
7.23034	6.8569
7.17033	7.0708
7.11132	7.2807
7.05327	7.3772
6.99616	7.487
6.93996	7.6946
6.88467	7.9148
6.83024	8.0337
6.77667	8.0561
6.72393	8.1086
6.67201	8.2658
6.62089	8.5117
6.57054	8.6787
6.52095	8.8115
6.4721	8.8965
6.42398	9.0427
6.37657	9.2278
6.32986	9.3781
6.28382	9.4392
6.23845	9.5581
6.19373	9.6928
6.14965	9.8264
6.10619	9.8867
6.06334	10.0818
6.02109	10.32
5.97942	10.5117
5.93832	10.4065
5.89778	10.1225
5.8578	9.8694
5.81835	9.3369
5.77943	9.195
5.74103	9.4136
5.70314	9.4228
5.66574	9.031
5.62883	8.2956
5.5924	7.27
5.55644	6.4082
5.52093	6.0903
5.48588	6.1736
5.45127	6.426
5.41709	6.635
5.38334	6.5762
5.35	6.6684
5.31708	7.0093
5.28456	7.4021
5.25243	8.0158
5.2207	8.9734
5.18934	9.7827
5.15836	10.3183
5.12775	10.7129
5.09749	11.1098
5.0676	11.4958
5.03805	11.748
5.00884	11.8784
4.97998	11.7705
4.95144	11.6035
4.92322	12.0966
4.89533	12.8156
4.86775	13.2798
4.84048	13.5476
4.81351	13.7446
4.78684	13.8425
4.76047	13.9013
4.73439	13.9375
4.70859	13.9636
4.68306	13.9968
4.65782	14.0009
4.63284	14.0048
4.60814	14.0205
4.58369	14.0761
4.5595	14.1008
4.53557	14.1445
4.51188	14.1831
4.48845	14.2243
4.46525	14.2409
4.44229	14.2485
4.41957	14.2595
4.39708	14.217
4.37481	14.0974
4.35277	13.7133
4.33096	12.7373
4.30935	11.8845
4.28797	13.1789
4.26679	13.8708
4.24583	14.1699
4.22506	14.3054
4.2045	14.3684
4.18414	14.3825
4.16398	14.3901
4.14401	14.3967
4.12423	14.4011
4.10464	14.4174
4.08523	14.4226
4.066	14.4384
4.04696	14.4165
4.02809	14.3381
4.0094	14.3855
3.99088	14.4292
3.97253	14.4389
3.95435	14.4497
3.93634	14.4406
3.91848	14.4423
3.90079	14.3986
3.88326	14.3339
3.86589	14.279
3.84867	14.2551
3.8316	14.2592
3.81468	14.2859
3.79791	14.3017
3.78129	14.3161
3.76482	14.3405
3.74848	14.3437
3.73229	14.3381
3.71624	14.227
3.70032	14.3076
3.68454	14.2876
3.6689	14.2524
3.65338	14.2348
3.638	14.2065
3.62275	14.1862
3.60762	14.166
3.59262	14.1511
3.57775	14.125
3.56299	14.1013
3.54836	14.0761
3.53385	14.028
3.51945	13.9133
3.50517	13.5725
3.49101	13.7378
3.47696	13.8029
3.46303	13.7917
3.4492	13.6735
3.43549	13.4975
3.42188	13.1652
3.40838	13.2671
3.39499	13.5276
3.38171	13.5532
3.36852	13.6291
3.35544	13.7351
3.34246	13.7668
3.32958	13.7697
3.3168	13.747
3.30411	13.7126
3.29153	13.7004
3.27903	13.677
3.26664	13.6386
3.25433	13.6045
3.24212	13.5861
3.23	13.5368
3.21797	13.5312
3.20603	13.4973
3.19418	13.478
3.18241	13.4509
3.17074	13.3969
3.15914	13.3615
3.14763	13.3366
3.13621	13.3015
3.12487	13.2761
3.11361	13.2444
3.10243	13.1967
3.09133	13.1284
3.0803	13.0671
3.06936	13.03
3.0585	12.9438
3.04771	12.8557
3.037	12.7321
3.02636	12.6504
3.0158	12.4997
3.00531	12.3083
2.99489	12.2453
2.98454	12.0966
2.97427	12.0815
2.96407	12.0708
2.95393	12.2136
2.94387	12.3659
2.93387	12.3967
2.92394	12.2158
2.91408	12.1953
2.90429	12.1577
2.89456	12.1653
2.88489	12.2141
2.87529	12.1028
2.86576	12.0876
2.85628	12.4702
2.84687	12.6831
2.83752	12.7251
2.82823	12.5822
2.81901	12.6181
2.80984	12.6552
2.80073	12.5693
2.79168	12.352
2.78269	12.0512
2.77376	11.6484
2.76488	10.6445
2.75606	7.8535
2.7473	3.0171
2.73859	1.1287
2.72994	7.5513
2.72134	10.8872
2.7128	12.2983
2.70431	12.9448
2.69587	13.3916
2.68748	13.6909
2.67915	13.8305
2.67087	13.9145
2.66264	14.061
2.65446	14.0825
2.64633	14.0554
2.63825	14.02
2.63021	13.8076
2.62223	13.5171
2.6143	13.507
2.60641	13.4218
2.59857	13.406
2.59078	13.6191
2.58304	13.6836
2.57534	13.5122
2.56768	13.2148
2.56008	12.8535
2.55251	12.33
2.54499	12.2446
2.53752	12.2961
2.53009	12.2702
2.5227	12.5388
2.51536	12.7966
2.50806	13.1721
2.5008	13.2553
2.49358	13.573
2.4864	13.7895
2.47927	13.9753
2.47218	13.9917
2.46512	14.0517
2.45811	14.226
2.45114	14.4028
2.4442	14.4741
2.43731	14.5175
2.43045	14.4995
2.42363	14.5026
2.41685	14.5249
2.41011	14.6391
2.40341	14.7192
2.39674	14.717
2.39011	14.7404
2.38352	14.8227
2.37696	14.799
2.37044	14.7959
2.36395	14.8567
2.35751	14.883
2.35109	14.9277
2.34471	14.9094
2.33836	14.9182
2.33205	14.9018
2.32578	14.8984
2.31953	15.0107
2.31332	15.0627
2.30714	15.0844
2.301	15.1157
2.29489	15.1584
2.28881	15.2295
2.28276	15.269
2.27675	15.2636
2.27076	15.208
2.26481	15.135
2.25889	15.1084
2.253	15.2661
2.24714	15.3212
2.24131	15.2949
2.23551	15.3349
2.22974	15.2981
2.224	15.2563
2.21829	15.2334
2.21261	15.1464
2.20696	15.1425
2.20134	15.1709
2.19574	15.2258
2.19018	15.2392
2.18464	15.1826
2.17913	15.1543
2.17365	15.1171
2.16819	15.1828
2.16277	15.1223
2.15737	15.0068
2.15199	14.913
2.14665	14.9238
2.14133	15.0014
2.13603	15.1113
2.13077	15.2544
2.12552	15.3335
2.12031	15.2895
2.11512	15.3037
2.10995	15.288
2.10481	15.1684
2.0997	15.0659
2.09461	14.7583
2.08954	13.7539
2.0845	11.539
2.07948	12.0058
