Name: Topaz Al2SiO4(F,OH)2
Type: Mineral
Class: Silicates
Subclass: Nesosilicates (Isolated tetrahedra)
Particle Size: Fine  (Less than 2  Micrometers)
Owner: JHU
Wavelength Range: IR
Origin: Wsakos, Namibia via Don Hoover, USGS
Description: The sample consisted of one small colorless fragment less
Measurement: Transmission
X Units: Wavelength (micrometers)
Y Units: Transmittance (percent)
wavelength	value
25.0442	53.8202
24.3388	70.2186
23.6719	50.2538
23.0407	45.0702
22.4422	17.6718
21.8741	8.9922
21.334	22.332
20.8199	13.2265
20.33	26.4081
19.8627	25.2968
19.4163	21.54
18.9896	19.5078
18.5812	44.0702
18.19	64.1678
17.815	39.0634
17.4551	61.3436
17.1094	47.9061
16.7772	51.703
16.4576	20.6298
16.15	3.7207
15.8537	6.8437
15.568	15.7158
15.2925	19.5214
15.0265	29.7577
14.7697	55.9022
14.5214	69.6736
14.2814	72.5984
14.0492	71.8211
13.8244	82.4768
13.6067	85.2224
13.3957	86.0076
13.1912	84.8758
12.9929	80.0628
12.8004	80.8338
12.6135	77.3792
12.432	71.3304
12.2557	62.1175
12.0843	48.1429
11.9176	29.3754
11.7555	14.8481
11.5977	5.4048
11.444	2.0605
11.2944	2.4434
11.1487	4.1133
11.0067	6.6484
10.8682	9.3447
10.7332	11.206
10.6015	11.6523
10.473	11.8325
10.3476	16.541
10.2251	29.2699
10.1056	37.2724
9.98873	27.3442
9.87458	31.0019
9.763	39.705
9.65392	44.4911
9.54724	47.7372
9.44291	49.8807
9.34082	51.5028
9.24091	53.287
9.14312	55.2933
9.04739	57.9549
8.95363	60.8695
8.8618	63.0023
8.77183	64.7225
8.68368	64.7078
8.59727	52.4828
8.51257	64.2196
8.42951	71.0967
8.34807	74.835
8.26819	78.1907
8.18981	81.2276
8.11292	83.6892
8.03745	85.471
7.96337	86.7718
7.89064	87.9822
7.81924	88.7852
7.74911	89.4033
7.68023	89.8816
7.61256	90.2754
7.54608	90.7002
7.48074	90.9509
7.41653	91.1961
7.35341	91.3535
7.29136	91.3779
7.23034	91.0808
7.17033	90.3047
7.11132	90.1651
7.05327	91.3274
6.99616	91.7119
6.93996	91.8694
6.88467	92.0654
6.83024	92.2852
6.77667	92.7061
6.72393	93.1077
6.67201	93.5195
6.62089	93.7781
6.57054	94.0017
6.52095	94.158
6.4721	94.2361
6.42398	94.3164
6.37657	94.3464
6.32986	94.2136
6.28382	94.2813
6.23845	94.6003
6.19373	95.032
6.14965	94.6121
6.10619	94.3523
6.06334	94.084
6.02109	93.4502
5.97942	93.7891
5.93832	94.4793
5.89778	94.9817
5.8578	95.281
5.81835	95.3564
5.77943	95.5332
5.74103	95.8252
5.70314	96.1309
5.66574	96.2234
5.62883	96.115
5.5924	95.9138
5.55644	95.6621
5.52093	95.5176
5.48588	95.5986
5.45127	95.7917
5.41709	95.9189
5.38334	95.8357
5.35	95.9685
5.31708	96.1885
5.28456	96.322
5.25243	96.654
5.2207	96.8689
5.18934	97.0691
5.15836	97.2334
5.12775	97.3513
5.09749	97.4275
5.0676	97.4944
5.03805	97.4939
5.00884	97.5947
4.97998	97.6594
4.95144	97.717
4.92322	97.7126
4.89533	97.759
4.86775	97.843
4.84048	97.8933
4.81351	97.9275
4.78684	97.9382
4.76047	97.9392
4.73439	97.8728
4.70859	97.8088
4.68306	97.8982
4.65782	97.8791
4.63284	97.8933
4.60814	97.9768
4.58369	97.9612
4.5595	97.946
4.53557	97.946
4.51188	97.9631
4.48845	97.9602
4.46525	97.947
4.44229	97.9495
4.41957	97.9665
4.39708	98.0129
4.37481	98.0095
4.35277	98.029
4.33096	98.0242
4.30935	97.9001
4.28797	98.0359
4.26679	98.0549
4.24583	97.9978
4.22506	98.0627
4.2045	98.0515
4.18414	98.0066
4.16398	98.0803
4.14401	97.9949
4.12423	97.9665
4.10464	98.0261
4.08523	97.9377
4.066	97.948
4.04696	97.9734
4.02809	97.8733
4.0094	97.9734
3.99088	97.9202
3.97253	98.0154
3.95435	97.8381
3.93634	97.9031
3.91848	97.9109
3.90079	97.928
3.88326	97.8635
3.86589	97.8621
3.84867	97.887
3.8316	97.9138
3.81468	97.8855
3.79791	97.8328
3.78129	97.7522
3.76482	97.803
3.74848	97.7742
3.73229	97.7312
3.71624	97.676
3.70032	97.53
3.68454	97.6414
3.6689	97.4841
3.65338	97.4392
3.638	97.4353
3.62275	97.3733
3.60762	97.3127
3.59262	97.24
3.57775	97.1814
3.56299	97.1091
3.54836	96.9304
3.53385	96.8621
3.51945	96.5642
3.50517	95.8513
3.49101	96.135
3.47696	96.158
3.46303	96.0139
3.4492	95.762
3.43549	95.3792
3.42188	94.6931
3.40838	94.7874
3.39499	95.1794
3.38171	95.1584
3.36852	95.2693
3.35544	95.2498
3.34246	95.1331
3.32958	94.9612
3.3168	94.8357
3.30411	94.7834
3.29153	94.6467
3.27903	94.4392
3.26664	94.2517
3.25433	94.0159
3.24212	93.6677
3.23	93.303
3.21797	92.971
3.20603	92.5789
3.19418	92.387
3.18241	92.2522
3.17074	92.1892
3.15914	92.0115
3.14763	91.8259
3.13621	91.8992
3.12487	91.8894
3.11361	91.8582
3.10243	91.742
3.09133	91.8142
3.0803	91.8748
3.06936	91.8298
3.0585	91.8806
3.04771	91.9021
3.037	91.8289
3.02636	91.9617
3.0158	92.0515
3.00531	91.992
2.99489	92.2781
2.98454	92.5857
2.97427	92.9724
2.96407	93.6648
2.95393	94.3894
2.94387	94.8093
2.93387	95.2029
2.92394	95.4666
2.91408	95.6804
2.90429	95.7869
2.89456	95.6492
2.88489	95.5271
2.87529	95.2302
2.86576	94.9304
2.85628	94.9187
2.84687	95.1619
2.83752	94.9724
2.82823	95.0037
2.81901	94.95
2.80984	95.0193
2.80073	94.6599
2.79168	94.4851
2.78269	94.5095
2.77376	94.2419
2.76488	94.1091
2.75606	93.1931
2.7473	88.4578
2.73859	72.3524
2.72994	94.9744
2.72134	95.5515
2.7128	95.9148
2.70431	95.9021
2.69587	95.6677
2.68748	95.4851
2.67915	95.7703
2.67087	95.6736
2.66264	95.4607
2.65446	95.449
2.64633	95.5701
2.63825	95.4451
2.63021	95.3162
2.62223	95.1775
2.6143	95.0007
2.60641	95.0271
2.59857	95.2937
2.59078	95.2439
2.58304	95.2117
2.57534	95.0154
2.56768	94.7742
2.56008	94.7849
2.55251	94.6306
2.54499	94.6189
2.53752	94.7224
2.53009	94.5154
2.5227	94.3474
2.51536	94.5701
2.50806	94.4861
2.5008	94.6013
2.49358	94.3962
2.4864	94.3572
2.47927	94.2791
2.47218	94.1345
2.46512	94.0876
2.45811	94.3005
2.45114	94.113
2.4442	94.033
2.43731	93.9919
2.43045	93.8298
2.42363	94.1052
2.41685	93.9373
2.41011	93.9138
2.40341	93.8455
2.39674	93.6482
2.39011	93.7615
2.38352	93.8767
2.37696	93.7752
2.37044	93.4255
2.36395	94.0095
2.35751	93.4705
2.35109	93.8904
2.34471	93.4021
2.33836	93.1873
2.33205	93.5877
2.32578	93.2693
2.31953	93.6482
2.31332	93.363
2.30714	93.8748
2.301	93.3904
2.29489	93.2498
2.28881	93.4646
2.28276	93.5466
2.27675	93.4099
2.27076	93.1736
2.26481	93.3826
2.25889	93.3865
2.253	93.8377
2.24714	93.4236
2.24131	93.2361
2.23551	93.3044
2.22974	93.4998
2.224	93.1267
2.21829	93.6189
2.21261	93.1189
2.20696	93.3767
2.20134	93.5877
2.19574	93.4685
2.19018	93.3533
2.18464	93.363
2.17913	93.5701
2.17365	93.7048
2.16819	93.7419
2.16277	93.7966
2.15737	93.4724
2.15199	93.324
2.14665	93.3904
2.14133	93.4529
2.13603	93.7263
2.13077	93.613
2.12552	93.8357
2.12031	94.0349
2.11512	93.8904
2.10995	93.6638
2.10481	93.6169
2.0997	93.9177
2.09461	93.5623
2.08954	94.1482
2.0845	93.1482
2.07948	94.2419
