Name: Grey-green shale
Type: Rocks
Class: Sedimentary
Subclass: Argillageous
Particle Size: see additional information
Sample No.: FGE6
Owner: University of NSW
Origin: Fowlers Gap Shale, Fowlers Gap, western New South Wales, Australia
Description: Shale containing fine quartz in a matrix of chlorite/muscovite/biotite. Some desert varnish coating
Measurement: Directional hemispherical reflectance
X Units: Wavelength (micrometers)
Y Units: Reflectance (percent)
wavelength	value
14.983	3.0432
14.728	4.0243
14.481	5.1072
14.242	3.8298
14.011	4.3692
13.788	4.6642
13.571	4.9891
13.361	5.3864
13.158	5.5425
12.96	6.4218
12.769	7.2384
12.583	6.552
12.402	4.9581
12.227	3.9876
12.056	4.6433
11.89	5.1645
11.729	5.7396
11.572	6.3361
11.419	6.8718
11.27	7.2939
11.125	7.929
10.983	8.6109
10.846	8.1061
10.711	8.0531
10.58	8.5689
10.452	9.6441
10.327	11.299
10.205	12.997
10.086	14.821
9.9695	17.4
9.8558	18.566
9.7447	20.653
9.636	24.115
9.5297	24.886
9.4257	25.748
9.324	27.966
9.2245	28.143
9.127	27.328
9.0316	25.301
8.9382	25.095
8.8467	25.551
8.757	24.498
8.6692	21.472
8.583	21.428
8.4986	22.89
8.4158	22.596
8.3347	22.441
8.255	23.228
8.1769	22.836
8.1002	17.376
8.025	12.653
7.9512	9.7154
7.8786	7.352
7.8075	6.2126
7.7375	5.9393
7.6689	5.6386
7.6014	5.141
7.5351	4.9549
7.47	4.6938
7.4059	4.5023
7.343	4.3525
7.2811	4.2829
7.2203	4.3689
7.1604	4.1796
7.1016	3.9379
7.0437	3.7468
6.9867	3.6919
6.9307	3.8356
6.8755	4.0098
6.8213	4.0886
6.7678	4.1299
6.7152	4.0572
6.6634	4.1757
6.6124	4.1632
6.5622	4.0951
6.5128	4.4096
6.464	4.8241
6.416	4.9005
6.3687	4.675
6.3221	4.3498
6.2762	4.0425
6.231	3.7458
6.1863	3.6477
6.1424	3.9235
6.099	4.0347
6.0563	4.1562
6.0141	4.1267
5.9725	4.1464
5.9315	4.1685
5.8911	4.5244
5.8512	4.9059
5.8118	5.2391
5.773	5.4459
5.7347	5.5593
5.6969	5.5866
5.6596	5.3095
5.6227	4.9174
5.5864	4.7778
5.5505	4.8801
5.5151	5.1553
5.4801	5.445
5.4455	5.7339
5.4114	5.4847
5.3778	4.8832
5.3445	4.7126
5.3116	4.8343
5.2792	5.0989
5.2471	5.6831
5.2154	6.4933
5.1842	6.7744
5.1532	6.8024
5.1227	6.8465
5.0925	6.8115
5.0627	6.7005
5.0332	6.6689
5.004	6.7234
4.9752	7.1545
4.9467	7.9791
4.9186	8.4892
4.8907	9.8837
4.8632	10.968
4.836	11.68
4.809	12.058
4.7824	12.327
4.7561	12.74
4.7301	13.112
4.7043	13.265
4.6788	13.235
4.6536	13.886
4.6287	14.517
4.604	15.045
4.5796	15.362
4.5555	15.588
4.5316	15.482
4.508	15.067
4.4846	14.794
4.4614	14.874
4.4385	15.385
4.4158	15.887
4.3934	16.398
4.3711	16.993
4.3491	17.473
4.3273	17.711
4.3058	17.74
4.2844	17.629
4.2633	17.614
4.2424	18.11
4.2216	18.35
4.2011	18.502
4.1808	18.638
4.1606	18.825
4.1407	18.986
4.1209	19.057
4.1014	19.231
4.082	19.339
4.0628	19.39
4.0438	19.371
4.025	19.338
4.0063	19.386
3.9878	19.358
3.9695	19.412
3.9513	19.409
3.9333	19.37
3.9155	19.295
3.8979	19.173
3.8804	19.019
3.863	18.808
3.8458	18.687
3.8288	18.52
3.8119	18.411
3.7951	18.212
3.7785	17.975
3.7621	17.721
3.7458	17.448
3.7296	17.172
3.7136	16.965
3.6977	16.724
3.6819	16.534
3.6663	16.291
3.6508	16.042
3.6355	15.751
3.6202	15.49
3.6051	15.142
3.5901	14.778
3.5753	14.408
3.5605	13.938
3.5459	13.677
3.5314	13.467
3.5171	13.197
3.5028	13.016
3.4887	12.937
3.4746	12.792
3.4607	12.572
3.4469	12.291
3.4332	11.934
3.4196	11.487
3.4061	11.279
3.3928	11.022
3.3795	10.775
3.3663	10.52
3.3533	10.249
3.3403	10.002
3.3274	9.7323
3.3147	9.5254
3.302	9.312
3.2894	9.0517
3.277	8.9209
3.2646	8.7451
3.2523	8.5403
3.2401	8.4623
3.228	8.2775
3.216	8.1057
3.204	7.9563
3.1922	7.7999
3.1805	7.7669
3.1688	7.5681
3.1572	7.4688
3.1457	7.3646
3.1343	7.2031
3.123	7.1593
3.1117	7.0651
3.1006	6.9452
3.0895	6.8841
3.0785	6.8099
3.0675	6.7444
3.0567	6.7114
3.0459	6.7349
3.0352	6.6442
3.0246	6.7191
3.014	6.7332
3.0036	6.677
2.9932	6.7651
2.9828	6.8316
2.9726	6.8365
2.9624	6.8828
2.9523	6.8731
2.9422	6.8919
2.9322	6.9611
2.9223	6.9917
2.9124	7.0318
2.9027	7.0894
2.8929	7.156
2.8833	7.1789
2.8737	7.2641
2.8642	7.284
2.8547	7.2629
2.8453	7.2757
2.836	7.2324
2.8267	7.0032
2.8175	6.7993
2.8083	6.4493
2.7992	6.0824
2.7902	5.597
2.7812	5.0478
2.7723	4.5926
2.7634	4.2635
2.7546	4.1778
2.7458	4.3892
2.7371	4.7
2.7285	5.5155
2.7199	6.7988
2.7114	7.3355
2.7029	6.5146
2.6945	10.402
2.6861	16.005
2.6778	19.784
2.6695	22.012
2.6613	23.687
2.6531	24.883
2.645	25.57
2.6369	26.151
2.6289	26.567
2.6209	26.925
2.613	27.191
2.6051	27.392
2.5973	27.728
2.5895	28.031
2.5817	28.268
2.5741	28.553
2.5664	28.781
2.5588	29.004
2.5513	29.183
2.5437	29.22
2.5363	29.389
2.5289	29.321
2.5215	29.449
2.5141	29.444
2.5068	29.483
2.4996	29.417
2.4924	29.438
2.4852	29.407
2.4781	29.558
2.471	29.475
2.464	29.418
2.4569	29.274
2.45	29.273
2.4431	29.367
2.4362	29.573
2.4293	29.943
2.4225	30.243
2.4157	30.481
2.409	30.802
2.4023	30.936
2.3956	31.012
2.389	31.054
2.3824	31.05
2.3759	31.113
2.3694	31.081
2.3629	30.866
2.3564	30.661
2.35	30.771
2.3436	31.027
2.3373	31.673
2.331	32.215
2.3247	32.937
2.3185	33.495
2.3123	33.997
2.3061	34.455
2.3	34.876
2.2939	35.134
2.2878	35.396
2.2818	35.595
2.2757	35.768
2.2698	35.785
2.2638	35.669
2.2579	35.364
2.252	35.091
2.2462	35.026
2.2403	34.742
2.2345	34.383
2.2288	33.596
2.2231	32.621
2.2173	31.976
2.2117	31.604
2.206	32.119
2.2004	33.557
2.1948	34.558
2.1893	35.792
2.1837	36.647
2.1782	37.157
2.1727	37.602
2.1673	37.63
2.1619	37.831
2.1565	38.066
2.1511	38.25
2.1458	38.519
2.1404	38.59
2.1352	38.808
2.1299	38.774
2.1247	38.643
2.1194	38.88
2.1143	38.886
2.1091	38.94
2.104	39.217
2.0988	39.359
2.0938	39.62
2.0887	39.638
2.0837	39.644
