Name: Construction  Concrete
Type: Manmade materials
Class: Concretes
Subclass: Construction Concrete
Particle Size: Solid
Sample No.: 0598UUUCNC
Owner: National Photographic Interpretation Center
Wavelength Range: All
Origin: Spectra obtained from the Noncoventional Exploitation Factors
Description: Approximately 30-year-old runway construction
Measurement: Directional (10 Degree) Hemispherical Reflectance
X Units: Wavelength (micrometers)
Y Units: Reflectance (percent)
wavelength	value
0.3	8.82
0.304	9.18
0.308	9.52
0.312	9.85
0.316	10.18
0.32	10.52
0.324	10.82
0.328	11.12
0.332	11.39
0.336	11.65
0.34	11.9
0.344	12.12
0.348	12.33
0.352	12.53
0.356	12.73
0.36	12.9
0.364	13.06
0.368	13.25
0.372	13.46
0.376	13.7
0.38	14.01
0.384	14.3
0.388	14.6
0.392	14.89
0.396	15.16
0.4	15.43
0.404	15.68
0.408	15.93
0.412	16.18
0.416	16.43
0.42	16.69
0.424	16.97
0.428	17.26
0.432	17.56
0.436	17.87
0.44	18.18
0.444	18.47
0.448	18.75
0.452	19.01
0.456	19.23
0.46	19.42
0.464	19.6
0.468	19.79
0.472	19.97
0.476	20.15
0.48	20.36
0.484	20.6
0.488	20.84
0.492	21.09
0.496	21.34
0.5	21.59
0.504	21.85
0.508	22.12
0.512	22.41
0.516	22.69
0.52	22.99
0.524	23.29
0.528	23.6
0.532	23.91
0.536	24.23
0.54	24.54
0.544	24.88
0.548	25.21
0.552	25.56
0.556	25.91
0.56	26.26
0.564	26.61
0.568	26.94
0.572	27.25
0.576	27.53
0.58	27.79
0.584	28.03
0.588	28.25
0.592	28.44
0.596	28.62
0.6	28.77
0.604	28.91
0.608	29.03
0.612	29.14
0.616	29.24
0.62	29.33
0.624	29.41
0.628	29.49
0.632	29.56
0.636	29.63
0.64	29.7
0.644	29.76
0.648	29.83
0.652	29.89
0.656	29.96
0.66	30.03
0.664	30.1
0.668	30.17
0.672	30.23
0.676	30.31
0.68	30.36
0.684	30.42
0.688	30.47
0.692	30.52
0.696	30.58
0.7	30.64
0.704	30.69
0.708	30.74
0.712	30.79
0.716	30.83
0.72	30.87
0.724	30.92
0.728	30.96
0.732	31
0.736	31.04
0.74	31.08
0.744	31.12
0.748	31.15
0.752	31.18
0.756	31.2
0.76	31.22
0.764	31.26
0.768	31.27
0.772	31.3
0.776	31.32
0.78	31.35
0.784	31.37
0.788	31.38
0.792	31.41
0.796	31.41
0.8	31.42
0.84	31.52
0.88	31.85
0.92	32.2
0.96	32.48
1	32.8
1.04	33.18
1.08	33.61
1.12	34.08
1.16	34.46
1.2	34.86
1.24	35.26
1.28	35.6
1.32	35.93
1.36	36.26
1.4	35.82
1.44	35.96
1.48	36.71
1.52	37.5
1.56	38.17
1.6	38.77
1.64	39.38
1.68	39.86
1.72	40.18
1.76	40.38
1.8	40.74
1.84	40.94
1.88	39.54
1.92	34.26
1.96	35.57
2	37.46
2.04	38.8
2.08	39.32
2.12	39.77
2.16	39.43
2.2	38.21
2.24	37.35
2.28	36.275
2.32	35.7352
2.36	34.8206
2.4	33.579
2.44	31.5692
2.48	29.867
2.52	29.0974
2.56	28.8634
2.6	28.4702
2.64	27.0508
2.68	21.4844
2.72	9.406
2.76	5.0405
2.8	4.8816
2.84	4.9237
2.88	4.8603
2.92	4.6667
2.96	4.8271
3	5.1771
3.04	5.0375
3.08	5.2523
3.12	5.5052
3.16	5.5737
3.2	6.4096
3.24	6.6443
3.28	7.3543
3.32	7.5285
3.36	7.4544
3.4	7.1317
3.44	7.494
3.48	7.8982
3.52	9.1383
3.56	10.652
3.6	11.2782
3.64	11.965
3.68	12.3642
3.72	12.6542
3.76	12.7664
3.8	12.4942
3.84	11.7864
3.88	11.5528
3.92	11.2302
3.96	9.6341
4	10.2796
4.04	12.8064
4.08	13.791
4.12	13.944
4.16	13.872
4.2	13.6742
4.24	13.436
4.28	13.1508
4.32	12.932
4.36	12.5926
4.4	11.9764
4.44	11.411
4.48	11.1362
4.52	11.1932
4.56	11.3584
4.6	10.9852
4.64	10.6282
4.68	10.1442
4.72	10.4694
4.76	10.3384
4.8	10.1496
4.84	9.7699
4.88	9.1652
4.92	8.5122
4.96	8.244
5	7.95
5.2	7.0983
5.4	5.9901
5.6	4.3943
5.8	3.7757
6	2.179
6.2	2.2873
6.4	3.8997
6.6	3.5872
6.8	3.041
7	2.9403
7.2	3.0369
7.4	4.0744
7.6	4.3834
7.8	4.9981
8	7.9769
8.2	13.618
8.4	14.0894
8.6	12.1757
8.8	14.1508
9	14.2244
9.2	15.2267
9.4	13.9308
9.6	11.8706
9.8	10.2582
10	8.8807
10.2	7.2627
10.4	5.8536
10.6	4.8996
10.8	4.4746
11	4.4709
11.2	4.3711
11.4	4.1692
11.6	3.7895
11.8	3.37
12	2.9953
12.2	2.5455
12.4	2.9269
12.6	3.555
12.8	4.2039
13	3.6625
13.2	3.2138
13.4	2.8796
13.6	2.7513
13.8	2.7308
14	2.5303
14.2	2.2902
14.4	2.4286
14.6	2.5285
14.8	1.7773
15	2.721
