Name: Metallic Silver Paint
Type: Manmade materials
Class: General Construction Materials
Subclass: Paints
Particle Size: Solid
Sample No.: 1246
Owner: JPL
Origin: The Testor Corp., 620 Buckbee St., Rockford, IL 61104
Description: Metallic silver spray enamel paint
Measurement: Hemispherical reflectance
X Units: Wavelength (micrometers)
Y Units: Reflectance (percent)
wavelength	value
14.0131	60.8621
13.7895	60.7526
13.5729	60.6443
13.363	60.5802
13.1595	60.5072
12.9621	60.4678
12.7705	60.3363
12.5845	60.2312
12.4039	60.2598
12.2284	60.2453
12.0578	60.0103
11.8918	59.9034
11.7304	59.8866
11.5733	59.6546
11.4203	59.486
11.2714	59.5602
11.1263	59.3323
10.9848	59.1815
10.8469	59.0541
10.7125	58.7902
10.5813	58.6191
10.4533	58.3812
10.3284	58.5214
10.2064	58.443
10.0872	58.5545
9.97084	58.5533
9.8571	58.5883
9.74592	58.5036
9.63724	58.3396
9.53094	58.1576
9.42697	58.01
9.32524	58
9.22568	57.8853
9.12823	57.9371
9.03281	57.8433
8.93937	58.087
8.84784	58.1213
8.75816	58.0941
8.67029	57.8106
8.58416	57.4478
8.49973	57.2019
8.41693	57.1909
8.33574	57.2793
8.2561	57.7736
8.17797	58.0939
8.10131	57.9197
8.02606	57.7604
7.9522	57.6606
7.87969	57.9574
7.80849	57.9879
7.73856	58.1691
7.66987	58.0555
7.60239	58.2993
7.5361	58.565
7.47094	58.6276
7.4069	58.328
7.34396	58.2077
7.28207	58.2289
7.22122	57.9876
7.16137	58.8149
7.10251	58.7738
7.04461	58.6037
6.98765	58.664
6.9316	58.3061
6.87644	57.945
6.82215	57.8687
6.76871	58.7007
6.71611	59.2992
6.66431	59.46
6.61331	59.6421
6.56308	59.7266
6.51361	59.6827
6.46488	59.7538
6.41687	60.0499
6.36957	59.704
6.32297	59.5206
6.27704	59.6087
6.23177	59.6619
6.18715	59.7648
6.14317	59.7598
6.0998	59.7129
6.05705	59.7833
6.01489	59.5183
5.97331	59.4106
5.9323	58.9559
5.89186	58.2399
5.85196	57.6389
5.81259	57.3737
5.77376	56.4609
5.73543	55.1696
5.69762	55.084
5.6603	57.5928
5.62347	59.2528
5.5871	59.5104
5.55121	59.6628
5.51578	59.7837
5.4808	59.7498
5.44625	59.8817
5.41214	59.835
5.37846	59.8983
5.34519	59.955
5.31233	59.9741
5.27987	59.9895
5.24781	60.0044
5.21613	60.1436
5.18483	59.9596
5.15391	60.029
5.12335	60.0761
5.09316	60.0278
5.06331	60.1122
5.03382	60.1834
5.00467	60.0471
4.97585	60.1614
4.94736	60.0723
4.9192	60.1369
4.89135	60.179
4.86382	60.191
4.8366	60.1051
4.80968	60.1882
4.78306	60.174
4.75673	60.1849
4.73069	60.2326
4.70493	60.2529
4.67945	60.354
4.65425	60.3051
4.62932	60.3477
4.60465	60.3129
4.58024	60.3295
4.55609	60.3728
4.5322	60.3536
4.50855	60.3799
4.48515	60.4685
4.46199	60.4074
4.43907	60.3637
4.41638	60.414
4.39393	60.4383
4.3717	60.5355
4.34969	60.5587
4.32791	60.4319
4.30634	60.4839
4.28499	60.434
4.26384	60.5407
4.24291	60.5957
4.22218	60.5549
4.20165	60.5931
4.18132	60.6771
4.16118	60.6827
4.14124	60.7164
4.12149	60.6528
4.10192	60.6905
4.08255	60.7264
4.06335	60.7636
4.04433	60.6867
4.02549	60.7618
4.00683	60.7857
3.98833	60.7951
3.97001	60.8774
3.95186	60.7944
3.93386	60.8281
3.91604	60.9297
3.89837	60.8617
3.88086	60.8406
3.86351	60.8732
3.84631	60.8706
3.82927	60.8304
3.81238	60.8834
3.79563	60.8949
3.77903	60.9316
3.76258	60.9734
3.74627	60.9791
3.7301	60.9583
3.71406	60.9193
3.69817	61.0333
3.68241	61.0256
3.66678	60.9894
3.65129	61.0666
3.63593	61.0479
3.62069	60.9395
3.60559	61.0112
3.59061	60.9299
3.57575	60.88
3.56101	60.789
3.5464	60.6845
3.5319	60.4009
3.51753	59.7599
3.50327	58.5398
3.48912	58.3586
3.47509	58.2179
3.46117	58.9123
3.44736	58.6639
3.43367	57.9018
3.42007	56.7282
3.40659	56.4469
3.39322	57.4425
3.37994	57.3836
3.36678	57.841
3.35371	59.6126
3.34074	60.6964
3.32788	61.2058
3.31511	61.5268
3.30244	61.6626
3.28987	61.6004
3.27739	61.5988
3.26501	61.673
3.25272	61.8294
3.24052	61.9174
3.22841	61.9284
3.2164	61.8425
3.20447	61.7977
3.19263	61.8959
3.18088	61.9814
3.16921	61.923
3.15763	61.9466
3.14614	61.9808
3.13472	61.8796
3.12339	61.8542
3.11214	61.9668
3.10098	61.9771
3.08989	61.861
3.07888	61.9451
3.06795	62.0348
3.0571	61.7696
3.04632	61.7782
3.03562	61.8244
3.02499	61.7755
3.01444	61.6936
3.00396	61.5113
2.99355	61.6126
2.98322	61.6027
2.97295	61.5024
2.96276	61.4816
2.95264	61.3578
2.94258	61.2765
2.9326	61.3338
2.92268	61.357
2.91283	61.2122
2.90304	61.2481
2.89332	61.1984
2.88367	61.0621
2.87408	61.0344
2.86455	61.1498
2.85508	61.2399
2.84568	61.2165
2.83634	61.2865
2.82706	61.5208
2.81784	61.6828
2.80869	61.7324
2.79959	61.9454
2.79055	62.1065
2.78156	62.4524
2.77264	62.4138
2.76377	62.7448
2.75496	62.6884
2.7462	62.5914
2.7375	62.6774
2.72886	62.6321
2.72027	62.8311
2.71173	62.8727
2.70325	62.5927
2.69482	62.8779
2.68644	62.6996
2.67812	62.867
2.66984	62.9477
2.66162	62.8064
2.65345	62.794
2.64532	62.8592
2.63725	62.8373
2.62923	62.8817
2.62125	63.0345
2.61332	62.7774
2.60544	63.1492
2.59761	62.7639
2.58983	62.867
2.58209	62.8546
2.5744	62.9021
2.56675	62.9901
2.55915	62.9289
2.55159	62.9933
2.54408	63.0993
2.53661	62.8548
2.52919	63.0517
2.52181	63.0298
2.51447	63.0617
2.50717	63.0796
2.49992	62.9587
2.49271	62.9351
2.48554	63.0481
2.47841	63.0197
2.47132	62.9557
2.46427	63.2157
2.45727	63.1327
2.4503	63.1514
2.44337	63.2392
2.43648	63.1858
2.42963	63.2695
2.42282	63.1146
2.41605	63.1603
2.40931	63.3072
2.40261	63.3071
2.39595	63.2624
2.38932	63.2703
2.38274	63.471
2.37618	63.3608
2.36967	63.4914
2.36319	63.299
2.35674	63.3548
2.35033	63.3985
2.34396	63.5029
2.33762	63.3035
2.33131	63.6036
2.32504	63.4671
2.3188	63.4121
2.31259	63.5286
2.30642	63.5381
2.30028	63.5819
2.29417	63.5687
2.2881	63.6258
2.28206	63.7146
2.27605	63.7627
2.27007	63.6901
2.26412	63.616
2.2582	63.6816
2.25232	63.7182
2.24646	63.7918
2.24064	63.8463
2.23484	63.7302
2.22908	63.8489
2.22334	63.8723
2.21764	63.7417
2.21196	64.0216
2.20631	63.8422
2.20069	63.9848
2.1951	64.0221
2.18954	63.9055
2.18401	63.9271
2.1785	64.1134
2.17302	64.0799
2.16757	64.2613
2.16215	63.7649
2.15675	63.9468
2.15138	64.4571
2.14604	63.9797
2.14072	64.2584
2.13543	64.1248
2.13017	64.022
2.12493	64.2169
2.11972	64.1712
2.11453	64.2497
2.10937	64.0662
2.10423	64.2583
2.09912	64.3633
2.09404	64.3585
2.08897	64.0134
2.08394	64.36
2.07892	64.6007
2.07393	64.0816
2.06897	64.3184
2.06403	64.41
2.05911	64.2653
2.05421	64.5874
2.04934	64.5761
2.04449	64.5651
2.03967	64.5065
2.03486	64.5519
2.03008	64.366
2.02533	64.2776
2.02059	64.6956
2.01588	64.697
2.01118	64.5006
2.00651	64.6902
2.00187	64.5457
