Name: White gypsum dune sand.
Type: Soils
Class: Entisol
Subclass: Torripsamment
Particle Size: see additional information
Sample No.: 0015
Owner: JHU
Origin: Dona Ana Co., NM.
Description: The parent material is eolian from evaporites.
Measurement: Directional (10 degree) hemispherical reflectance
X Units: Wavelength (micrometers)
Y Units: Reflectance (percent)
wavelength	value
14.0112	1.1416
13.7147	1.2847
13.4304	1.4456
13.1577	1.5029
12.8959	1.6326
12.6443	1.6851
12.4023	1.7571
12.1694	1.8391
11.945	1.9087
11.7289	1.9536
11.5203	2.0952
11.3191	2.1042
11.1248	2.2109
10.937	2.3113
10.7555	2.3916
10.5799	2.5288
10.4099	2.6545
10.2454	2.864
10.0859	3.104
9.9313	3.3684
9.7814	3.676
9.636	3.9729
9.4948	4.3313
9.3577	5
9.2245	6.3559
9.095	9.1338
8.9691	16.1174
8.8467	24.2597
8.7275	26.8769
8.6116	26.5929
8.4986	20.5061
8.3886	10.8867
8.2814	5.1843
8.1769	1.4978
8.075	0.5457
7.9756	0.3447
7.8786	0.3511
7.784	0.426
7.6916	0.491
7.6014	0.5789
7.5133	0.6494
7.4272	0.7493
7.343	0.8555
7.2607	0.9397
7.1803	1.0415
7.1016	1.1638
7.0246	1.2644
6.9493	1.3093
6.8755	1.376
6.8034	1.3894
6.7327	1.4116
6.6634	1.4077
6.5956	1.4353
6.5292	1.4243
6.464	1.4023
6.4002	1.4145
6.3376	1.4543
6.2762	1.5427
6.216	1.863
6.157	2.5149
6.099	0.8552
6.0421	1.0513
5.9863	1.2014
5.9315	1.1682
5.8777	0.9902
5.8249	1.1296
5.773	1.2576
5.722	1.3684
5.6719	1.541
5.6227	1.6721
5.5744	1.7847
5.5268	2.0281
5.4801	2.3191
5.4341	2.5483
5.3889	2.6904
5.3445	2.7913
5.3008	2.927
5.2578	3.0134
5.2154	3.0466
5.1738	2.9761
5.1328	2.8564
5.0925	2.7634
5.0528	2.7197
5.0137	2.7214
4.9752	2.5115
4.9373	2.6106
4.9	2.4592
4.8632	2.2749
4.827	2.0781
4.7913	1.8003
4.7561	1.5424
4.7215	1.489
4.6873	1.5044
4.6536	1.5181
4.6205	1.5288
4.5877	1.5549
4.5555	1.4971
4.5237	1.4976
4.4923	1.4656
4.4614	1.4644
4.4309	1.4883
4.4008	1.4858
4.3711	1.5193
4.3418	1.5537
4.3129	1.6382
4.2844	1.8059
4.2563	2.0234
4.2285	2.2595
4.2011	2.6118
4.174	2.9783
4.1473	3.3694
4.1209	3.8379
4.0949	4.4145
4.0692	4.9944
4.0438	5.6291
4.0187	6.1916
3.994	6.4172
3.9695	6.2112
3.9453	7.6094
3.9214	8.4731
3.8979	8.8664
3.8746	8.1413
3.8515	9.4067
3.8288	9.7771
3.8063	9.8845
3.7841	9.9458
3.7621	9.924
3.7404	9.8027
3.7189	9.6606
3.6977	9.5537
3.6767	9.2031
3.656	8.7261
3.6355	8.1865
3.6152	7.6335
3.5951	7.0449
3.5753	6.5405
3.5557	6.1369
3.5363	5.8164
3.5171	5.5417
3.4981	5.2112
3.4793	4.8574
3.4607	4.6272
3.4423	4.3198
3.4241	4.0508
3.4061	3.7778
3.3883	3.4773
3.3707	3.2153
3.3533	2.937
3.336	2.7812
3.3189	2.5759
3.302	2.4228
3.2853	2.2744
3.2687	2.155
3.2523	2.095
3.2361	2.0469
3.22	1.9705
3.204	1.97
3.1883	1.9446
3.1727	1.9727
3.1572	1.9123
3.1419	1.9529
3.1268	1.977
3.1117	1.9507
3.0969	2.0183
3.0821	1.9795
3.0675	1.9653
3.0531	2.001
3.0388	2.0232
3.0246	2.0867
3.0105	2.1587
2.9966	2.1785
2.9828	2.2734
2.9692	2.4451
2.9556	2.8865
2.9422	3.4866
2.9289	3.6374
2.9157	2.6523
2.9027	1.7012
2.8897	1.5324
2.8769	1.634
2.8642	1.8806
2.8516	2.2174
2.8391	2.6706
2.8267	2.9849
2.8144	2.5376
2.8022	1.6851
2.7902	1.0906
2.7782	0.9192
2.7664	0.8779
2.7546	0.8877
2.7429	1.0161
2.7314	1.0356
2.7199	1.1267
2.7085	1.2852
2.6973	1.4102
2.6861	1.5478
2.675	1.6387
2.664	1.7893
2.6531	1.9416
2.6423	2.1423
2.6315	2.2761
2.6209	2.3472
2.6103	2.3974
2.5999	2.4692
2.5895	2.5752
2.5792	2.5083
2.569	2.6169
2.5588	2.6797
2.5487	2.7781
2.5388	2.8828
2.5289	2.9363
2.519	2.9241
2.5093	2.8203
2.4996	2.7783
2.49	2.6843
2.4805	2.7637
2.471	2.8318
2.4616	2.9072
2.4523	3.0386
2.4431	3.0622
2.4339	3.146
2.4248	3.3105
2.4157	3.5393
2.4068	3.9368
2.3979	4.8271
2.389	6.144
2.3802	7.4458
2.3715	8.8078
2.3629	10.0524
2.3543	11.0385
2.3458	11.9502
2.3373	12.6291
2.3289	13.197
2.3206	13.4677
2.3123	13.5451
2.3041	13.5471
2.2959	13.3024
2.2878	12.9414
2.2798	12.2053
2.2718	11.0891
2.2638	11.1592
2.2559	11.7395
2.2481	11.924
2.2403	11.7807
2.2326	11.2798
2.225	10.0283
2.2173	9.3271
2.2098	9.8324
2.2023	10.5967
2.1948	11.1725
2.1874	11.3469
2.18	11.5344
2.1727	11.8318
2.1655	12.395
2.1583	13.0888
2.1511	13.6972
2.144	14.2949
2.1369	14.8606
2.1299	15.4602
2.1229	16.1516
2.116	16.9525
2.1091	17.76
2.1023	18.5986
2.0955	19.3491
2.0887	20.0798
2.082	20.6892
2.06	21.3708
2.028	20.0392
1.996	10.7166
1.964	3.6534
1.932	2.5441
1.9	7.1801
1.868	22.8192
1.836	41.0754
1.804	41.2983
1.772	32.3972
1.74	27.1152
1.708	42.4559
1.676	59.6449
1.644	60.2367
1.612	53.4388
1.58	44.3115
1.548	33.6958
1.516	27.221
1.484	20.8463
1.452	20.0046
1.42	25.0792
1.388	45.9903
1.356	52.9247
1.324	64.3247
1.292	70.1227
1.26	70.5126
1.228	65.7926
1.196	61.5712
1.164	64.4514
1.132	77.0676
1.1	78.3452
1.068	79.4259
1.036	80.0138
1.004	75.9738
0.972	74.9943
0.94	78.6171
0.908	79.2871
0.876	80.1813
0.844	80.7605
0.812	81.2391
0.795	81.6483
0.787	81.9348
0.779	81.6707
0.771	81.0988
0.763	80.6692
0.755	80.6871
0.747	80.7608
0.739	80.6617
0.731	80.3249
0.723	80.5411
0.715	79.9818
0.707	79.8746
0.699	79.6738
0.691	79.1444
0.683	78.5078
0.675	78.8353
0.667	78.3106
0.659	78.0917
0.651	77.4933
0.643	77.788
0.635	77.5118
0.627	76.9397
0.619	75.9754
0.611	76.4636
0.603	76.5785
0.595	76.7078
0.587	75.9193
0.579	75.1074
0.571	73.8838
0.563	72.6326
0.555	71.2419
0.547	70.2554
0.539	69.403
0.531	68.0206
0.523	67.3565
0.515	66.7694
0.507	65.0347
0.499	64.6291
0.491	62.8608
0.483	61.6614
0.475	61.4376
0.467	60.0543
0.459	58.3218
0.451	57.596
0.443	56.0593
0.435	54.0699
0.427	52.5965
0.419	50.857
0.411	49.301
0.403	47.6814
