Name: Light yellowish brown interior dry gravelly loam
Type: Soils
Class: Aridisol
Subclass: Calciorthid
Particle Size: see additional information
Sample No.: 79P1536
Owner: JHU
Origin: 8 km north of Deir El zor, Syria via USDA Soil Conservation
Description: The parent material is alluvium from mixed material; alluvial fine
Measurement: Directional (10 degree) hemispherical reflectance
X Units: Wavelength (micrometers)
Y Units: Reflectance (percent)
wavelength	value
14.983	1.6401
14.645	1.6711
14.321	1.5583
14.011	1.6262
13.715	1.8469
13.43	2.0461
13.158	2.0664
12.896	2.2082
12.644	2.0586
12.402	2.1182
12.169	2.3769
11.945	2.6855
11.729	2.9175
11.52	3.144
11.319	2.98
11.125	2.8291
10.937	2.6111
10.755	2.7268
10.58	2.8926
10.41	3.0122
10.245	3.282
10.086	3.4809
9.9313	3.5498
9.7814	3.8645
9.636	4.3157
9.4948	4.3828
9.3577	4.3042
9.2245	4.0334
9.095	3.6609
8.9691	3.571
8.8467	3.8166
8.7275	3.9507
8.6116	3.9897
8.4986	4.4253
8.3886	4.4927
8.2814	5.4975
8.1769	6.5752
8.075	6.2619
7.9756	6.0701
7.8786	5.843
7.784	6.0019
7.6916	6.0979
7.6014	5.9028
7.5133	5.9695
7.4272	5.7978
7.343	5.1662
7.2607	4.1177
7.1803	3.262
7.1016	3.3777
7.0246	3.0742
6.9493	2.8015
6.8755	2.6143
6.8034	2.7109
6.7327	2.7751
6.6634	2.9194
6.5956	3.2793
6.5292	4.0615
6.464	4.9919
6.4002	4.8367
6.3376	4.0688
6.2762	3.3572
6.216	2.6672
6.157	2.001
6.099	1.7915
6.0421	1.75
5.9863	2.0825
5.9315	2.602
5.8777	3.7537
5.8249	4.8535
5.773	5.5017
5.722	6.1367
5.6719	6.6706
5.6227	6.4824
5.5744	4.3325
5.5268	6.7451
5.4801	8.3037
5.4341	9.1828
5.3889	9.1462
5.3445	8.9758
5.3008	9.5346
5.2578	10.367
5.2154	11.561
5.1738	12.184
5.1328	12.433
5.0925	12.545
5.0528	12.803
5.0137	13.015
4.9752	13.689
4.9373	14.583
4.9	15.687
4.8632	16.985
4.827	17.671
4.7913	18.2
4.7561	18.593
4.7215	18.775
4.6873	18.159
4.6536	18.739
4.6205	19.995
4.5877	20.735
4.5555	21.177
4.5237	21.322
4.4923	21.286
4.4614	21.695
4.4309	22.371
4.4008	23.093
4.3711	23.898
4.3418	24.432
4.3129	24.732
4.2844	24.629
4.2563	25.235
4.2285	25.791
4.2011	26.706
4.174	27.098
4.1473	27.309
4.1209	27.296
4.0949	27.001
4.0692	26.264
4.0438	24.164
4.0187	19.911
3.994	14.498
3.9695	13.302
3.9453	16.772
3.9214	19.326
3.8979	20.004
3.8746	20.235
3.8515	20.528
3.8288	21.948
3.8063	24.263
3.7841	26.078
3.7621	26.235
3.7404	26.02
3.7189	25.622
3.6977	25.125
3.6767	24.648
3.656	23.986
3.6355	23.363
3.6152	22.601
3.5951	21.774
3.5753	20.702
3.5557	19.766
3.5363	18.317
3.5171	15.631
3.4981	13.74
3.4793	12.672
3.4607	13.403
3.4423	13.25
3.4241	12.432
3.4061	12.021
3.3883	11.646
3.3707	11.204
3.3533	10.562
3.336	11.102
3.3189	11.005
3.302	10.474
3.2853	9.9507
3.2687	9.3669
3.2523	8.7912
3.2361	8.2514
3.22	7.7844
3.204	7.2593
3.1883	6.7844
3.1727	6.2959
3.1572	5.8772
3.1419	5.4817
3.1268	5.0456
3.1117	4.7488
3.0969	4.4722
3.0821	4.2349
3.0675	4.0769
3.0531	3.917
3.0388	3.8865
3.0246	3.78
3.0105	3.6997
2.9966	3.5107
2.9828	3.4224
2.9692	3.3235
2.9556	3.206
2.9422	3.2214
2.9289	3.2151
2.9157	3.2776
2.9027	3.321
2.8897	3.3694
2.8769	3.4267
2.8642	3.4546
2.8516	3.3054
2.8391	3.1052
2.8267	2.8093
2.8144	2.7224
2.8022	2.9382
2.7902	2.8281
2.7782	2.9546
2.7664	2.6538
2.7546	2.9297
2.7429	3.7473
2.7314	4.9189
2.7199	6.5329
2.7085	7.3847
2.6973	11.498
2.6861	20.17
2.675	24.202
2.664	26.544
2.6531	29.27
2.6423	30.824
2.6315	30.6
2.6209	31.234
2.6103	31.82
2.5999	31.881
2.5895	31.929
2.5792	32.406
2.569	32.6
2.5588	32.661
2.5487	32.674
2.5388	32.63
2.5289	32.953
2.519	33.42
2.5093	33.807
2.4996	34.154
2.49	34.56
2.4805	35.043
2.471	35.588
2.4616	36.033
2.4523	36.304
2.4431	36.574
2.4339	36.948
2.4248	37.475
2.4157	37.89
2.4068	38.278
2.3979	38.485
2.389	38.846
2.3802	39.016
2.3715	39.285
2.3629	39.282
2.3543	39.172
2.3458	38.961
2.3373	39.072
2.3289	39.582
2.3206	40.111
2.3123	40.801
2.3041	41.187
2.2959	41.555
2.2878	41.997
2.2798	42.53
2.2718	42.822
2.2638	42.858
2.2559	42.64
2.2481	42.829
2.2403	43.029
2.2326	43.378
2.225	42.934
2.2173	42.853
2.2098	42.972
2.2023	43.776
2.1948	44.298
2.1874	44.73
2.18	45.083
2.1727	45.34
2.1655	45.465
2.1583	45.654
2.1511	45.818
2.144	46
2.1369	46.121
2.1299	45.963
2.1229	45.996
2.116	46.131
2.1091	46.129
2.1023	46.051
2.0955	46.306
2.0887	46.171
2.082	46.148
2.06	46.179
2.028	45.018
1.996	42.874
1.964	40.561
1.932	38.061
1.9	36.285
1.868	42.94
1.836	44.7
1.804	45.911
1.772	45.681
1.74	45.867
1.708	45.871
1.676	45.731
1.644	45.133
1.612	44.91
1.58	44.955
1.548	44.63
1.516	43.482
1.484	43.768
1.452	42.113
1.42	40.875
1.388	41.55
1.356	43.207
1.324	42.222
1.292	41.837
1.26	41.802
1.228	41.336
1.196	40.84
1.164	39.838
1.132	39.922
1.1	38.442
1.068	38.137
1.036	37.59
1.004	36.854
0.972	36.46
0.94	35.964
0.908	35.269
0.876	35.205
0.844	34.58
0.812	34.765
0.795	34.79
0.787	34.078
0.779	34.358
0.771	33.665
0.763	33.983
0.755	33.682
0.747	33.255
0.739	32.93
0.731	32.756
0.723	32.168
0.715	32.285
0.707	32.071
0.699	32.711
0.691	30.62
0.683	30.107
0.675	29.943
0.667	29.392
0.659	28.771
0.651	28.71
0.643	27.889
0.635	27.541
0.627	26.921
0.619	26.651
0.611	26.388
0.603	25.655
0.595	24.896
0.587	24.447
0.579	22.799
0.571	21.643
0.563	20.068
0.555	18.725
0.547	17.202
0.539	16.085
0.531	14.696
0.523	13.722
0.515	13.007
0.507	11.879
0.499	11.376
0.491	10.422
0.483	9.5302
0.475	9.0419
0.467	8.4576
0.459	7.7894
0.451	7.4942
0.443	6.2299
0.435	5.6146
0.427	4.9687
0.419	4.1357
0.411	3.4548
0.403	3.2619
