Name: Dark brown interior moist clay loam
Type: Soils
Class: Aridisol
Subclass: Salorthid
Particle Size: see additional information
Sample No.: 79P1530
Owner: JHU
Origin: Mrayia Dair El zor, Syria via USDA Soil Conservation service.
Description: The parent material is alluvium from terracettes in lake plains;
Measurement: Directional (10 degree) hemispherical reflectance
X Units: Wavelength (micrometers)
Y Units: Reflectance (percent)
wavelength	value
14.983	2.0144
14.645	2.1277
14.321	1.9853
14.011	1.8525
13.715	2.0923
13.43	2.1992
13.158	2.2881
12.896	2.3804
12.644	2.3525
12.402	2.4748
12.169	2.6733
11.945	3.0503
11.729	3.1277
11.52	3.1794
11.319	3.4434
11.125	3.2563
10.937	3.0176
10.755	3.133
10.58	3.1284
10.41	3.3147
10.245	3.4766
10.086	3.9162
9.9313	4.2527
9.7814	4.7222
9.636	5.1013
9.4948	5.1221
9.3577	5.0671
9.2245	4.8286
9.095	4.6055
8.9691	4.4338
8.8467	4.7253
8.7275	5.0962
8.6116	5.0749
8.4986	5.5893
8.3886	5.8181
8.2814	6.4043
8.1769	6.8196
8.075	6.312
7.9756	6.0549
7.8786	5.7649
7.784	5.6614
7.6916	5.5727
7.6014	5.0437
7.5133	4.675
7.4272	4.2656
7.343	3.9441
7.2607	3.5786
7.1803	3.3669
7.1016	3.7627
7.0246	3.6809
6.9493	3.5173
6.8755	3.5481
6.8034	3.7322
6.7327	4.2107
6.6634	4.5884
6.5956	5.2346
6.5292	5.9131
6.464	6.3435
6.4002	5.7341
6.3376	5.0137
6.2762	4.2226
6.216	3.1982
6.157	2.5332
6.099	2.4399
6.0421	2.5132
5.9863	2.9885
5.9315	3.5998
5.8777	4.5544
5.8249	5.6452
5.773	6.216
5.722	6.8054
5.6719	7.2117
5.6227	7.0449
5.5744	5.2412
5.5268	7.3144
5.4801	8.5783
5.4341	9.4895
5.3889	9.5061
5.3445	9.1911
5.3008	9.8
5.2578	10.711
5.2154	11.826
5.1738	12.5
5.1328	12.685
5.0925	12.858
5.0528	13.047
5.0137	13.107
4.9752	13.629
4.9373	14.486
4.9	15.419
4.8632	16.381
4.827	16.801
4.7913	16.67
4.7561	16.951
4.7215	17.038
4.6873	16.525
4.6536	16.958
4.6205	18.082
4.5877	18.877
4.5555	19.197
4.5237	19.173
4.4923	19.232
4.4614	19.813
4.4309	20.357
4.4008	20.767
4.3711	21.188
4.3418	21.463
4.3129	21.553
4.2844	21.364
4.2563	21.92
4.2285	22.195
4.2011	23.283
4.174	23.715
4.1473	23.991
4.1209	24.169
4.0949	24.14
4.0692	23.737
4.0438	22.192
4.0187	18.902
3.994	14.545
3.9695	13.243
3.9453	15.891
3.9214	17.931
3.8979	18.83
3.8746	19.102
3.8515	19.55
3.8288	20.758
3.8063	22.336
3.7841	24.142
3.7621	24.583
3.7404	24.648
3.7189	24.312
3.6977	23.874
3.6767	23.43
3.656	22.974
3.6355	22.345
3.6152	21.708
3.5951	20.932
3.5753	19.973
3.5557	19.067
3.5363	17.911
3.5171	15.436
3.4981	13.661
3.4793	12.617
3.4607	13.162
3.4423	13.055
3.4241	12.441
3.4061	11.973
3.3883	11.56
3.3707	11.096
3.3533	10.311
3.336	10.72
3.3189	10.616
3.302	10.096
3.2853	9.6369
3.2687	9.0759
3.2523	8.4421
3.2361	7.8869
3.22	7.4165
3.204	6.8655
3.1883	6.3576
3.1727	5.9316
3.1572	5.4951
3.1419	5.084
3.1268	4.7529
3.1117	4.3789
3.0969	4.176
3.0821	4.0005
3.0675	3.8533
3.0531	3.7578
3.0388	3.6467
3.0246	3.5002
3.0105	3.4128
2.9966	3.136
2.9828	3.1372
2.9692	3.0207
2.9556	2.9724
2.9422	2.9851
2.9289	2.97
2.9157	2.9907
2.9027	3.0066
2.8897	3.1914
2.8769	3.2009
2.8642	3.269
2.8516	3.2383
2.8391	3.1392
2.8267	2.9939
2.8144	2.8806
2.8022	2.8413
2.7902	2.9319
2.7782	2.9441
2.7664	2.7192
2.7546	2.989
2.7429	3.5693
2.7314	4.5945
2.7199	5.2434
2.7085	6.0132
2.6973	8.6909
2.6861	15.716
2.675	20.591
2.664	22.722
2.6531	25.65
2.6423	26.959
2.6315	26.181
2.6209	26.85
2.6103	27.42
2.5999	27.317
2.5895	27.382
2.5792	27.884
2.569	28.095
2.5588	28.214
2.5487	28.204
2.5388	28.319
2.5289	28.462
2.519	28.701
2.5093	28.848
2.4996	28.979
2.49	29.197
2.4805	29.516
2.471	29.878
2.4616	30.168
2.4523	30.543
2.4431	30.982
2.4339	31.227
2.4248	31.747
2.4157	32.134
2.4068	32.331
2.3979	32.535
2.389	32.724
2.3802	32.849
2.3715	33.059
2.3629	33.103
2.3543	32.997
2.3458	32.962
2.3373	32.819
2.3289	33.01
2.3206	33.371
2.3123	33.769
2.3041	34.05
2.2959	34.369
2.2878	34.881
2.2798	35.244
2.2718	35.624
2.2638	35.654
2.2559	35.778
2.2481	35.771
2.2403	36.022
2.2326	36.271
2.225	36.414
2.2173	36.249
2.2098	36.323
2.2023	36.509
2.1948	37.015
2.1874	37.209
2.18	37.443
2.1727	37.658
2.1655	37.54
2.1583	37.908
2.1511	37.84
2.144	37.943
2.1369	37.941
2.1299	37.819
2.1229	37.858
2.116	37.802
2.1091	37.784
2.1023	37.861
2.0955	37.87
2.0887	37.759
2.082	38.221
2.06	37.449
2.028	36.322
1.996	34.663
1.964	32.888
1.932	31.704
1.9	31.159
1.868	35.483
1.836	36.12
1.804	36.698
1.772	36.516
1.74	36.628
1.708	36.483
1.676	36.798
1.644	36.338
1.612	35.662
1.58	35.05
1.548	35.27
1.516	34.594
1.484	34.199
1.452	33.441
1.42	32.411
1.388	32.373
1.356	32.991
1.324	32.779
1.292	32.709
1.26	31.777
1.228	31.574
1.196	30.92
1.164	30.215
1.132	29.973
1.1	28.986
1.068	28.97
1.036	28.348
1.004	28.332
0.972	28.108
0.94	27.731
0.908	27.483
0.876	27.532
0.844	27.642
0.812	28.075
0.795	28.099
0.787	27.096
0.779	27.385
0.771	26.89
0.763	26.978
0.755	26.677
0.747	26.267
0.739	25.837
0.731	25.768
0.723	25.471
0.715	25.958
0.707	25.245
0.699	25.897
0.691	24.983
0.683	24.469
0.675	24.509
0.667	24.055
0.659	23.747
0.651	23.682
0.643	23.179
0.635	23.238
0.627	22.414
0.619	22.246
0.611	22.5
0.603	22.084
0.595	21.54
0.587	21.632
0.579	20.495
0.571	19.935
0.563	19.07
0.555	18.023
0.547	16.743
0.539	16.193
0.531	15.196
0.523	14.421
0.515	13.741
0.507	12.802
0.499	12.691
0.491	11.704
0.483	10.9
0.475	10.434
0.467	10.143
0.459	9.5795
0.451	9.3524
0.443	8.4403
0.435	7.8586
0.427	7.3294
0.419	6.5635
0.411	6.0056
0.403	5.7606
