Name: Very pale brown to brownish yellow interior dry gravelly silt loam
Type: Soils
Class: Aridisol
Subclass: Gypsiorthid
Particle Size: see additional information
Sample No.: 82P2695
Owner: JHU
Origin: Schuamri wildlife reserve on highway Azraq to Saudi Arabia via USDA
Description: from grazed rangeland.  Very pale brown interior dry gravelly silt
Measurement: Directional (10 degree) hemispherical reflectance
X Units: Wavelength (micrometers)
Y Units: Reflectance (percent)
wavelength	value
14.983	1.9421
14.645	2.0081
14.321	1.7449
14.011	1.7578
13.715	2.063
13.43	2.2519
13.158	2.469
12.896	2.6025
12.644	2.394
12.402	2.4956
12.169	2.7454
11.945	3.1855
11.729	3.4348
11.52	3.3747
11.319	3.2317
11.125	3.0588
10.937	2.5508
10.755	2.6323
10.58	2.7759
10.41	2.8498
10.245	2.727
10.086	2.6284
9.9313	2.7878
9.7814	2.9338
9.636	3.261
9.4948	3.4099
9.3577	3.7473
9.2245	3.7959
9.095	3.7209
8.9691	3.8435
8.8467	4.5051
8.7275	5.0432
8.6116	5.1902
8.4986	5.7029
8.3886	5.8227
8.2814	6.4978
8.1769	7.3149
8.075	7.1118
7.9756	7.0185
7.8786	6.8679
7.784	7.0276
7.6916	7.1338
7.6014	6.8681
7.5133	6.8877
7.4272	6.5969
7.343	5.739
7.2607	4.5386
7.1803	3.623
7.1016	3.9126
7.0246	3.5879
6.9493	3.2378
6.8755	3.0454
6.8034	3.0049
6.7327	3.0657
6.6634	3.2261
6.5956	3.6111
6.5292	4.4612
6.464	5.458
6.4002	5.4636
6.3376	4.7707
6.2762	3.9238
6.216	2.9726
6.157	2.2974
6.099	2.1494
6.0421	2.1733
5.9863	2.6621
5.9315	3.2183
5.8777	4.4536
5.8249	5.9424
5.773	6.8008
5.722	7.7407
5.6719	8.487
5.6227	8.1472
5.5744	5.3706
5.5268	8.3513
5.4801	10.296
5.4341	11.645
5.3889	11.674
5.3445	11.402
5.3008	12.166
5.2578	13.455
5.2154	14.842
5.1738	15.514
5.1328	15.652
5.0925	15.67
5.0528	15.819
5.0137	15.899
4.9752	16.338
4.9373	17.385
4.9	18.496
4.8632	19.545
4.827	19.69
4.7913	19.03
4.7561	18.485
4.7215	17.969
4.6873	17.163
4.6536	17.587
4.6205	18.759
4.5877	19.243
4.5555	19.107
4.5237	18.973
4.4923	18.976
4.4614	19.499
4.4309	20.193
4.4008	20.88
4.3711	21.618
4.3418	22.219
4.3129	22.699
4.2844	22.602
4.2563	23.572
4.2285	24.968
4.2011	26.749
4.174	27.641
4.1473	28.151
4.1209	28.399
4.0949	28.384
4.0692	27.73
4.0438	25.552
4.0187	21.16
3.994	15.684
3.9695	14.215
3.9453	17.668
3.9214	20.369
3.8979	21.405
3.8746	21.778
3.8515	22.406
3.8288	23.967
3.8063	26.148
3.7841	28.62
3.7621	29.26
3.7404	29.185
3.7189	28.874
3.6977	28.349
3.6767	27.736
3.656	27.124
3.6355	26.366
3.6152	25.594
3.5951	24.654
3.5753	23.436
3.5557	22.451
3.5363	20.86
3.5171	18.079
3.4981	16.006
3.4793	14.663
3.4607	15.463
3.4423	15.35
3.4241	14.658
3.4061	14.159
3.3883	13.791
3.3707	13.281
3.3533	12.409
3.336	13.085
3.3189	13.002
3.302	12.442
3.2853	11.916
3.2687	11.294
3.2523	10.559
3.2361	10.019
3.22	9.3774
3.204	8.8484
3.1883	8.2524
3.1727	7.7204
3.1572	7.2527
3.1419	6.7043
3.1268	6.2632
3.1117	5.8628
3.0969	5.5991
3.0821	5.373
3.0675	5.2976
3.0531	5.1428
3.0388	4.98
3.0246	4.9214
3.0105	4.7605
2.9966	4.5913
2.9828	4.4575
2.9692	4.3782
2.9556	4.1982
2.9422	4.2222
2.9289	4.1858
2.9157	4.2427
2.9027	4.1977
2.8897	4.2598
2.8769	4.3247
2.8642	4.3777
2.8516	4.3718
2.8391	4.2622
2.8267	3.9934
2.8144	3.8696
2.8022	3.689
2.7902	3.6448
2.7782	3.5059
2.7664	3.0698
2.7546	3.1977
2.7429	3.8745
2.7314	5.0508
2.7199	6.3779
2.7085	6.2685
2.6973	9.7041
2.6861	18.91
2.675	23.213
2.664	25.938
2.6531	29.567
2.6423	31.487
2.6315	31.008
2.6209	31.952
2.6103	32.885
2.5999	32.952
2.5895	33.083
2.5792	33.873
2.569	34.096
2.5588	34.271
2.5487	34.351
2.5388	34.194
2.5289	34.523
2.519	34.929
2.5093	35.131
2.4996	35.189
2.49	35.351
2.4805	35.748
2.471	36.349
2.4616	37.016
2.4523	37.648
2.4431	38.324
2.4339	39.114
2.4248	40.04
2.4157	40.908
2.4068	41.719
2.3979	42.651
2.389	43.531
2.3802	44.369
2.3715	45.196
2.3629	45.775
2.3543	45.906
2.3458	46.19
2.3373	46.615
2.3289	47.227
2.3206	47.82
2.3123	47.907
2.3041	48.458
2.2959	48.754
2.2878	49.052
2.2798	49.553
2.2718	49.648
2.2638	49.72
2.2559	49.631
2.2481	49.895
2.2403	49.921
2.2326	49.882
2.225	49.44
2.2173	49.134
2.2098	48.341
2.2023	49.641
2.1948	50.607
2.1874	51.143
2.18	51.552
2.1727	51.814
2.1655	52.127
2.1583	52.611
2.1511	53.148
2.144	53.519
2.1369	53.972
2.1299	54.135
2.1229	54.183
2.116	54.332
2.1091	54.455
2.1023	54.668
2.0955	54.681
2.0887	54.791
2.082	55.313
2.06	55.246
2.028	53.498
1.996	49.575
1.964	43.083
1.932	38.394
1.9	39.165
1.868	51.169
1.836	55.02
1.804	56.479
1.772	55.99
1.74	55.408
1.708	57.168
1.676	57.229
1.644	56.645
1.612	55.944
1.58	55.727
1.548	55.416
1.516	53.884
1.484	52.961
1.452	51.595
1.42	49.814
1.388	52.709
1.356	53.193
1.324	54.751
1.292	55.118
1.26	54.499
1.228	54.823
1.196	54.65
1.164	53.544
1.132	53.761
1.1	51.716
1.068	51.382
1.036	51.082
1.004	49.661
0.972	48.741
0.94	48.662
0.908	47.815
0.876	47.809
0.844	47.234
0.812	46.533
0.795	47.42
0.787	46.355
0.779	46.881
0.771	46.386
0.763	47.004
0.755	46.703
0.747	46.265
0.739	45.878
0.731	45.368
0.723	45.334
0.715	45.207
0.707	44.836
0.699	44.105
0.691	42.656
0.683	42.553
0.675	41.893
0.667	41.328
0.659	40.448
0.651	39.733
0.643	39.12
0.635	38.702
0.627	37.929
0.619	36.956
0.611	36.976
0.603	36.201
0.595	34.59
0.587	33.753
0.579	31.286
0.571	29.707
0.563	27.236
0.555	25.121
0.547	22.89
0.539	20.849
0.531	18.875
0.523	17.36
0.515	16.081
0.507	14.185
0.499	13.586
0.491	12.056
0.483	10.826
0.475	10.05
0.467	8.9129
0.459	8.0344
0.451	7.6998
0.443	6.2521
0.435	4.8068
0.427	3.9196
0.419	2.6227
0.411	1.7326
0.403	0.9133
