Name: Very dark grayish brown silty loam
Type: Soils
Class: Inceptisol
Subclass: Plaggept
Particle Size: see additional information
Sample No.: 85P3707
Owner: JHU
Origin: Reelfoot Indian mound.  Obion Co., Tn. via USDA Soil
Description: Very dark grayish brown silty loam.
Measurement: Directional (10 degree) hemispherical reflectance
X Units: Wavelength (micrometers)
Y Units: Reflectance (percent)
wavelength	value
14.0112	2.675
13.7147	2.9883
13.4304	2.9441
13.1577	2.5183
12.8959	2.5093
12.6443	2.0317
12.4023	1.9297
12.1694	2.106
11.945	3.3022
11.7289	4.1907
11.5203	4.2876
11.3191	4.2192
11.1248	3.9492
10.937	3.4954
10.7555	3.5569
10.5799	3.4619
10.4099	3.4187
10.2454	3.2891
10.0859	3.3696
9.9313	3.6765
9.7814	3.8474
9.636	4.4236
9.4948	5.0178
9.3577	7.0808
9.2245	8.0359
9.095	7.6372
8.9691	7.2156
8.8467	7.0984
8.7275	6.8115
8.6116	5.6623
8.4986	7.2666
8.3886	7.8437
8.2814	8.5891
8.1769	8.4941
8.075	5.863
7.9756	3.9482
7.8786	2.6011
7.784	2.0903
7.6916	1.9292
7.6014	1.7417
7.5133	1.6899
7.4272	1.7068
7.343	1.7266
7.2607	1.75
7.1803	1.8723
7.1016	1.956
7.0246	2.0447
6.9493	2.3252
6.8755	2.5776
6.8034	2.8916
6.7327	3.1345
6.6634	3.1699
6.5956	3.0517
6.5292	2.9607
6.464	3.4365
6.4002	3.4214
6.3376	3.0552
6.2762	2.5271
6.216	2.186
6.157	2.2764
6.099	2.6118
6.0421	2.8398
5.9863	3.0442
5.9315	3.2952
5.8777	4.5012
5.8249	5.9451
5.773	7.2873
5.722	8.591
5.6719	9.0451
5.6227	7.9328
5.5744	7.9436
5.5268	9.2917
5.4801	11.1638
5.4341	11.6076
5.3889	8.466
5.3445	6.8159
5.3008	7.4031
5.2578	9.342
5.2154	12.865
5.1738	13.7065
5.1328	13.5493
5.0925	13.3559
5.0528	12.6194
5.0137	12.5278
4.9752	13.8725
4.9373	16.424
4.9	19.677
4.8632	23.1911
4.827	24.5226
4.7913	25.1845
4.7561	25.6642
4.7215	25.9743
4.6873	25.5151
4.6536	26.2294
4.6205	27.0778
4.5877	27.6169
4.5555	27.8351
4.5237	27.4811
4.4923	26.6117
4.4614	26.5512
4.4309	27.3532
4.4008	28.0834
4.3711	28.9531
4.3418	29.6022
4.3129	29.7389
4.2844	29.7096
4.2563	29.9716
4.2285	30.1513
4.2011	30.3168
4.174	30.4687
4.1473	30.5446
4.1209	30.5885
4.0949	30.5597
4.0692	30.4985
4.0438	30.2211
4.0187	30.0329
3.994	29.8046
3.9695	29.6418
3.9453	29.4208
3.9214	29.1562
3.8979	28.8132
3.8746	28.3891
3.8515	28.0409
3.8288	27.6315
3.8063	27.1596
3.7841	26.6625
3.7621	26.1511
3.7404	25.5922
3.7189	25.1721
3.6977	24.6713
3.6767	24.1642
3.656	23.6701
3.6355	23.1992
3.6152	22.6713
3.5951	22.1027
3.5753	21.4387
3.5557	20.6953
3.5363	19.8371
3.5171	18.5385
3.4981	17.3286
3.4793	16.9619
3.4607	16.4841
3.4423	15.6826
3.4241	14.3474
3.4061	14.0764
3.3883	14.2976
3.3707	14.1836
3.3533	14.3288
3.336	14.2358
3.3189	13.9013
3.302	13.4182
3.2853	12.8237
3.2687	12.2661
3.2523	11.7329
3.2361	11.2488
3.22	10.7981
3.204	10.3777
3.1883	9.8979
3.1727	9.4372
3.1572	8.9587
3.1419	8.5327
3.1268	8.0957
3.1117	7.758
3.0969	7.5139
3.0821	7.2678
3.0675	7.0608
3.0531	6.8642
3.0388	6.8034
3.0246	6.6457
3.0105	6.5305
2.9966	6.4458
2.9828	6.3638
2.9692	6.1357
2.9556	6.1162
2.9422	6.1885
2.9289	6.1933
2.9157	6.1584
2.9027	6.2973
2.8897	6.436
2.8769	6.6047
2.8642	6.8161
2.8516	6.9021
2.8391	7.0139
2.8267	7.0544
2.8144	7.1535
2.8022	7.0776
2.7902	7.0539
2.7782	6.6626
2.7664	6.103
2.7546	6.0515
2.7429	7.3909
2.7314	9.1516
2.7199	12.1035
2.7085	13.655
2.6973	16.604
2.6861	28.9135
2.675	35.1698
2.664	37.6955
2.6531	39.5336
2.6423	40.6862
2.6315	41.3463
2.6209	41.8183
2.6103	42.2435
2.5999	42.6625
2.5895	42.7692
2.5792	42.861
2.569	42.9166
2.5588	43.0648
2.5487	43.0739
2.5388	42.9213
2.5289	42.8458
2.519	42.9682
2.5093	42.9813
2.4996	43.1679
2.49	43.4003
2.4805	43.5853
2.471	43.9899
2.4616	44.3109
2.4523	44.6517
2.4431	45.1359
2.4339	45.5133
2.4248	46.0297
2.4157	46.4847
2.4068	46.755
2.3979	47.0004
2.389	47.2157
2.3802	47.2953
2.3715	47.6371
2.3629	47.7928
2.3543	47.7159
2.3458	47.8282
2.3373	48.1383
2.3289	48.4149
2.3206	48.6571
2.3123	48.7084
2.3041	48.6708
2.2959	48.9745
2.2878	49.2279
2.2798	49.3734
2.2718	49.5489
2.2638	49.4794
2.2559	49.7147
2.2481	50.0089
2.2403	50.2096
2.2326	50.298
2.225	50.2028
2.2173	50.0424
2.2098	49.2296
2.2023	49.3353
2.1948	49.6344
2.1874	49.8441
2.18	50.2484
2.1727	50.245
2.1655	50.4147
2.1583	50.5265
2.1511	50.9418
2.144	51.0707
2.1369	50.9921
2.1299	50.9115
2.1229	51.2596
2.116	51.1283
2.1091	51.0726
2.1023	51.1122
2.0955	51.2631
2.0887	51.2794
2.082	51.3207
2.06	51.0751
2.028	50.1066
1.996	49.4757
1.964	47.3979
1.932	45.5903
1.9	45.7432
1.868	52.8332
1.836	54.0251
1.804	53.6381
1.772	53.8605
1.74	53.5456
1.708	53.7697
1.676	53.3668
1.644	53.2397
1.612	52.7161
1.58	52.9283
1.548	52.7965
1.516	51.8276
1.484	51.4542
1.452	49.8625
1.42	49.3905
1.388	50.0884
1.356	50.9492
1.324	50.4166
1.292	49.8208
1.26	49.8117
1.228	48.432
1.196	47.6629
1.164	46.6619
1.132	46.0383
1.1	45.4489
1.068	44.2401
1.036	43.4324
1.004	42.5324
0.972	41.1628
0.94	40.1274
0.908	39.1086
0.876	37.6637
0.844	36.5516
0.812	35.0304
0.795	33.5517
0.787	33.0371
0.779	32.6855
0.771	32.5661
0.763	31.7882
0.755	31.1268
0.747	30.4056
0.739	29.8315
0.731	29.2345
0.723	28.2185
0.715	27.7866
0.707	27.1691
0.699	26.3431
0.691	25.83
0.683	25.3725
0.675	24.228
0.667	23.8252
0.659	23.4167
0.651	22.5246
0.643	21.8695
0.635	21.9385
0.627	20.9461
0.619	20.625
0.611	19.9574
0.603	18.7916
0.595	18.4905
0.587	18.5145
0.579	17.833
0.571	16.6845
0.563	16.338
0.555	15.705
0.547	14.8736
0.539	14.4411
0.531	13.5149
0.523	12.8912
0.515	12.6244
0.507	11.7604
0.499	11.1678
0.491	10.4604
0.483	10.1579
0.475	9.3441
0.467	9.2107
0.459	8.7137
0.451	8.1843
0.443	7.4739
0.435	6.8322
0.427	6.0417
0.419	5.3058
0.411	4.77
0.403	4.1766
