Name: Grayish brown loam
Type: Soils
Class: Mollisol
Subclass: Haplustall
Particle Size: see additional information
Sample No.: 85P4569
Owner: JHU
Origin: Cheyenne Co., Nb. via USDA Soil Conservation service.
Description: Parent material is residuum from mixed-calcareous material.
Measurement: Directional (10 degree) hemispherical reflectance
X Units: Wavelength (micrometers)
Y Units: Reflectance (percent)
wavelength	value
14.0112	1.4869
13.7147	1.6295
13.4304	1.6814
13.1577	1.7983
12.8959	1.9546
12.6443	1.7938
12.4023	1.7114
12.1694	1.7688
11.945	2.0608
11.7289	2.3633
11.5203	2.571
11.3191	2.5391
11.1248	2.5631
10.937	2.5394
10.7555	2.5911
10.5799	2.7219
10.4099	2.9219
10.2454	3.2154
10.0859	3.6239
9.9313	4.0867
9.7814	4.3738
9.636	4.8349
9.4948	4.9827
9.3577	5.0469
9.2245	4.7845
9.095	4.4477
8.9691	4.3391
8.8467	4.385
8.7275	4.2319
8.6116	3.8345
8.4986	4.3127
8.3886	4.5211
8.2814	4.5972
8.1769	4.4028
8.075	3.6316
7.9756	3.2814
7.8786	3.1171
7.784	3.1316
7.6916	3.1655
7.6014	3.0301
7.5133	3.0688
7.4272	3.0517
7.343	2.9014
7.2607	2.5608
7.1803	2.2781
7.1016	2.3857
7.0246	2.2268
6.9493	2.1351
6.8755	2.0881
6.8034	2.1244
6.7327	2.2695
6.6634	2.2955
6.5956	2.3971
6.5292	2.479
6.464	2.4375
6.4002	2.2032
6.3376	1.9139
6.2762	1.6727
6.216	1.4678
6.157	1.3165
6.099	1.2505
6.0421	1.2601
5.9863	1.3895
5.9315	1.6835
5.8777	2.3097
5.8249	3.1648
5.773	3.9193
5.722	4.6916
5.6719	5.3899
5.6227	5.4496
5.5744	4.3719
5.5268	6.1319
5.4801	7.0718
5.4341	7.4509
5.3889	6.9399
5.3445	6.6029
5.3008	7.0346
5.2578	7.8685
5.2154	9.1164
5.1738	9.6883
5.1328	9.8473
5.0925	9.9367
5.0528	9.9259
5.0137	10.0643
4.9752	10.6263
4.9373	11.5136
4.9	12.7099
4.8632	14.0758
4.827	14.6839
4.7913	14.9886
4.7561	15.217
4.7215	15.2617
4.6873	14.7927
4.6536	15.151
4.6205	15.9196
4.5877	16.3149
4.5555	16.6231
4.5237	16.6845
4.4923	16.5766
4.4614	16.8437
4.4309	17.409
4.4008	17.966
4.3711	18.6398
4.3418	19.163
4.3129	19.5334
4.2844	19.6522
4.2563	20.0637
4.2285	20.5405
4.2011	20.989
4.174	21.288
4.1473	21.463
4.1209	21.5048
4.0949	21.4435
4.0692	21.1761
4.0438	20.2622
4.0187	18.4154
3.994	14.8632
3.9695	14.0886
3.9453	16.3368
3.9214	17.5184
3.8979	17.628
3.8746	17.5069
3.8515	17.3523
3.8288	17.7028
3.8063	18.1884
3.7841	18.3991
3.7621	17.9862
3.7404	17.4205
3.7189	16.9246
3.6977	16.4027
3.6767	15.844
3.656	15.323
3.6355	14.7779
3.6152	14.2271
3.5951	13.5852
3.5753	12.847
3.5557	12.0987
3.5363	11.1852
3.5171	9.5311
3.4981	8.3048
3.4793	7.8312
3.4607	7.8545
3.4423	7.3401
3.4241	6.4189
3.4061	6.2873
3.3883	6.4123
3.3707	6.3398
3.3533	6.307
3.336	6.5378
3.3189	6.399
3.302	6.0829
3.2853	5.6986
3.2687	5.336
3.2523	4.9595
3.2361	4.6743
3.22	4.4165
3.204	4.1453
3.1883	3.8887
3.1727	3.644
3.1572	3.4204
3.1419	3.1764
3.1268	2.9994
3.1117	2.8245
3.0969	2.6929
3.0821	2.5885
3.0675	2.4813
3.0531	2.4581
3.0388	2.3995
3.0246	2.321
3.0105	2.2473
2.9966	2.2157
2.9828	2.1768
2.9692	2.1309
2.9556	2.0874
2.9422	2.0521
2.9289	2.0727
2.9157	2.0856
2.9027	2.1188
2.8897	2.1318
2.8769	2.1699
2.8642	2.2515
2.8516	2.338
2.8391	2.3848
2.8267	2.464
2.8144	2.4391
2.8022	2.5126
2.7902	2.5021
2.7782	2.4382
2.7664	2.5007
2.7546	2.5878
2.7429	3.1829
2.7314	4.3293
2.7199	6.4523
2.7085	8.5554
2.6973	12.6086
2.6861	20.0837
2.675	23.6885
2.664	25.7773
2.6531	27.8488
2.6423	29.0547
2.6315	29.5291
2.6209	30.0988
2.6103	30.7624
2.5999	31.1249
2.5895	31.2192
2.5792	31.4074
2.569	31.4456
2.5588	31.3532
2.5487	31.287
2.5388	31.0705
2.5289	31.2347
2.519	31.4903
2.5093	31.6889
2.4996	31.9176
2.49	32.1383
2.4805	32.5247
2.471	33.102
2.4616	33.6014
2.4523	34.1448
2.4431	34.7763
2.4339	35.4225
2.4248	36.1123
2.4157	36.7963
2.4068	37.3065
2.3979	37.7581
2.389	38.0476
2.3802	38.3081
2.3715	38.532
2.3629	38.7626
2.3543	38.7023
2.3458	38.7213
2.3373	38.9655
2.3289	39.3865
2.3206	39.778
2.3123	39.8895
2.3041	39.9254
2.2959	40.2966
2.2878	40.6435
2.2798	40.9024
2.2718	41.0125
2.2638	41.0011
2.2559	41.0982
2.2481	41.197
2.2403	41.3327
2.2326	41.5383
2.225	41.4353
2.2173	41.2152
2.2098	40.9368
2.2023	41.2921
2.1948	41.8838
2.1874	42.3394
2.18	42.6569
2.1727	42.9651
2.1655	43.0618
2.1583	43.2223
2.1511	43.4507
2.144	43.4213
2.1369	43.6011
2.1299	43.5751
2.1229	43.5999
2.116	43.5712
2.1091	43.4922
2.1023	43.593
2.0955	43.6124
2.0887	43.4957
2.082	43.4569
2.06	43.188
2.028	42.9783
1.996	41.1513
1.964	38.6861
1.932	35.7896
1.9	34.1459
1.868	44.2999
1.836	46.727
1.804	46.4506
1.772	46.14
1.74	46.3964
1.708	46.4746
1.676	45.7952
1.644	45.7296
1.612	45.4922
1.58	45.0952
1.548	44.3766
1.516	43.8372
1.484	42.4245
1.452	41.4891
1.42	40.7506
1.388	40.8386
1.356	42.7117
1.324	42.2871
1.292	41.7613
1.26	41.3849
1.228	40.3428
1.196	39.9633
1.164	38.8869
1.132	38.2396
1.1	37.3605
1.068	36.2612
1.036	35.9236
1.004	34.6925
0.972	33.8118
0.94	32.6559
0.908	31.4993
0.876	30.7254
0.844	29.6399
0.812	28.5947
0.795	27.17
0.787	27.0067
0.779	26.3916
0.771	26.085
0.763	25.5054
0.755	25.121
0.747	24.3597
0.739	24.0065
0.731	23.5492
0.723	22.8567
0.715	22.3435
0.707	21.8084
0.699	21.2854
0.691	20.4746
0.683	19.8163
0.675	19.3623
0.667	18.7684
0.659	18.3115
0.651	17.7327
0.643	17.498
0.635	16.6564
0.627	16.4207
0.619	16.0139
0.611	15.8044
0.603	15.4539
0.595	15.2462
0.587	14.5689
0.579	14.2708
0.571	13.6314
0.563	12.9809
0.555	12.181
0.547	11.6705
0.539	11.3758
0.531	10.6475
0.523	10.6411
0.515	10.1721
0.507	9.1973
0.499	9.1828
0.491	8.5589
0.483	8.209
0.475	8.0191
0.467	7.305
0.459	7.1082
0.451	6.6083
0.443	6.1932
0.435	5.7532
0.427	5.0112
0.419	4.6884
0.411	3.9991
0.403	3.4601
