Name: Black loam
Type: Soils
Class: Mollisol
Subclass: Cryoboroll
Particle Size: see additional information
Sample No.: 85P4663
Owner: JHU
Origin: Gunnison Co., Co. via USDA Soil Conservation service.
Description: Parent material is local colluvium from igneous andesitic
Measurement: Directional (10 degree) hemispherical reflectance
X Units: Wavelength (micrometers)
Y Units: Reflectance (percent)
wavelength	value
14.0112	1.3995
13.7147	1.4767
13.4304	1.5041
13.1578	1.5699
12.8959	1.6741
12.6443	1.5926
12.4023	1.6626
12.1694	1.9291
11.945	2.181
11.7289	2.3373
11.5203	2.428
11.3191	2.5322
11.1248	2.516
10.937	2.4709
10.7555	2.5287
10.5799	2.62
10.4099	2.7079
10.2454	2.8473
10.0859	3.1081
9.9313	3.4416
9.7814	3.555
9.636	3.9242
9.4948	3.9877
9.3577	3.7761
9.2245	3.4038
9.095	3.0369
8.9691	2.9093
8.8467	2.9065
8.7275	2.8019
8.6116	2.5892
8.4986	2.8131
8.3886	2.9167
8.2814	2.9237
8.1769	2.6865
8.075	2.1951
7.9756	1.9061
7.8786	1.7364
7.784	1.6996
7.6916	1.7048
7.6014	1.6754
7.5133	1.6829
7.4272	1.704
7.343	1.6791
7.2607	1.6108
7.1803	1.6407
7.1016	1.6807
7.0246	1.6644
6.9493	1.7718
6.8755	1.8362
6.8034	2.0413
6.7327	2.3796
6.6634	2.3341
6.5956	2.1654
6.5292	2.1384
6.464	2.0312
6.4002	1.908
6.3376	1.8298
6.2762	1.7065
6.216	1.5826
6.157	1.4773
6.099	1.4474
6.0421	1.4331
5.9863	1.5542
5.9315	1.804
5.8777	2.1544
5.8249	2.614
5.773	3.1284
5.722	3.9025
5.6719	4.8695
5.6227	5.741
5.5744	6.7209
5.5268	7.7333
5.4801	8.4469
5.4341	8.9388
5.3889	8.9645
5.3445	8.7868
5.3008	9.2252
5.2578	9.8401
5.2154	10.5136
5.1738	10.894
5.1328	11.0627
5.0925	11.2304
5.0528	11.3403
5.0137	11.4463
4.9752	11.7663
4.9373	12.1231
4.9	12.5102
4.8632	12.8552
4.827	12.9798
4.7913	13.1134
4.7561	13.2086
4.7215	13.3012
4.6873	13.3304
4.6536	13.4782
4.6205	13.7321
4.5877	13.9577
4.5555	14.1439
4.5237	14.2949
4.4923	14.3979
4.4614	14.5686
4.4309	14.8267
4.4008	15.0133
4.3711	15.1832
4.3418	15.3337
4.3129	15.4555
4.2844	15.4251
4.2563	15.487
4.2285	15.5164
4.2011	15.6016
4.174	15.5595
4.1473	15.5022
4.1209	15.3703
4.0949	15.234
4.0692	15.0858
4.0438	14.8748
4.0187	14.7202
3.994	14.5214
3.9695	14.3819
3.9453	14.1836
3.9214	13.9568
3.8979	13.7581
3.8746	13.5236
3.8515	13.2721
3.8288	13.0311
3.8063	12.7437
3.7841	12.4611
3.7621	12.1353
3.7404	11.8231
3.7189	11.4998
3.6977	11.1958
3.6767	10.8562
3.656	10.5531
3.6355	10.2507
3.6152	9.9806
3.5951	9.6207
3.5753	9.2752
3.5557	8.8458
3.5363	8.3803
3.5171	7.5372
3.4981	6.8697
3.4793	6.7289
3.4607	6.4156
3.4423	6.066
3.4241	5.3555
3.4061	5.3345
3.3883	5.5433
3.3707	5.6
3.3533	5.6842
3.336	5.6949
3.3189	5.5795
3.302	5.3415
3.2853	5.1199
3.2687	4.8451
3.2523	4.5936
3.2361	4.4377
3.22	4.2075
3.2041	4.0166
3.1883	3.873
3.1727	3.6903
3.1572	3.4773
3.1419	3.3146
3.1268	3.1735
3.1117	3.0272
3.0969	2.9541
3.0821	2.91
3.0675	2.7797
3.0531	2.7136
3.0388	2.6174
3.0246	2.5865
3.0105	2.5272
2.9966	2.4794
2.9828	2.4375
2.9692	2.3677
2.9556	2.3822
2.9422	2.3755
2.9289	2.3851
2.9157	2.3313
2.9027	2.4026
2.8897	2.4372
2.8769	2.4332
2.8642	2.4554
2.8516	2.4726
2.8391	2.6428
2.8267	2.6735
2.8144	2.6341
2.8022	2.7454
2.7902	2.7712
2.7782	2.8165
2.7664	2.8093
2.7546	2.8559
2.7429	3.5249
2.7314	4.5504
2.7199	5.7213
2.7085	6.6175
2.6973	7.8801
2.6861	14.0601
2.675	18.1174
2.664	20.0715
2.6531	21.9133
2.6423	23.0239
2.6315	23.2253
2.6209	23.8062
2.6103	24.4152
2.5999	24.8104
2.5895	24.8444
2.5792	24.7861
2.569	24.7781
2.5588	24.8322
2.5487	24.8803
2.5388	24.8365
2.5289	24.93
2.519	24.9538
2.5093	25.0556
2.4996	25.2537
2.49	25.2679
2.4805	25.622
2.471	26.012
2.4616	26.3727
2.4523	26.745
2.4431	27.1578
2.4339	27.6741
2.4248	28.0904
2.4157	28.528
2.4068	28.8173
2.3979	29.0317
2.389	29.2898
2.3802	29.2951
2.3715	29.5025
2.3629	29.7577
2.3543	29.5992
2.3458	29.8111
2.3373	30.0191
2.3289	30.2574
2.3206	30.382
2.3123	30.2626
2.3041	30.381
2.2959	30.6609
2.2878	30.9031
2.2798	31.0632
2.2718	31.2087
2.2638	31.3184
2.2559	31.4056
2.2481	31.7527
2.2403	32.0149
2.2326	32.1446
2.225	32.0972
2.2173	31.8556
2.2098	31.5072
2.2023	31.4266
2.1948	31.6491
2.1874	31.8377
2.18	31.9441
2.1727	31.9654
2.1655	32.0475
2.1583	32.1131
2.1511	32.2248
2.144	32.2271
2.1369	32.4112
2.1299	32.2996
2.1229	32.5035
2.116	32.3554
2.1091	32.5081
2.1023	32.5961
2.0955	32.4305
2.0887	32.46
2.082	32.4989
2.06	32.6536
2.028	32.9408
1.996	31.8965
1.964	30.4074
1.932	28.0838
1.9	28.3771
1.868	33.8617
1.836	34.9169
1.804	34.4989
1.772	34.3088
1.74	34.5518
1.708	34.4128
1.676	34.0481
1.644	33.5244
1.612	33.519
1.58	33.4309
1.548	32.7056
1.516	32.1394
1.484	31.1435
1.452	30.5209
1.42	30.2218
1.388	30.0499
1.356	30.8055
1.324	30.2078
1.292	29.684
1.26	29.2246
1.228	28.7918
1.196	27.7884
1.164	26.8064
1.132	26.2168
1.1	24.8803
1.068	23.9911
1.036	23.2592
1.004	21.8984
0.972	21.0376
0.94	19.7784
0.908	18.5142
0.876	17.7704
0.844	16.5384
0.812	15.7402
0.795	14.3046
0.787	14.1154
0.779	13.8071
0.771	13.356
0.763	13.1258
0.755	12.6324
0.747	12.3846
0.739	12.2072
0.731	11.6293
0.723	11.2826
0.715	10.9638
0.707	10.6921
0.699	10.3675
0.691	9.8343
0.683	9.4449
0.675	9.1501
0.667	8.79
0.659	8.6582
0.651	8.3058
0.643	7.817
0.635	7.5806
0.627	7.3382
0.619	7.1589
0.611	7.023
0.603	6.8392
0.595	6.3883
0.587	6.3736
0.579	6.1194
0.571	5.7704
0.563	5.5092
0.555	4.7652
0.547	4.6085
0.539	4.6788
0.531	4.3856
0.523	4.1845
0.515	4.1983
0.507	3.6189
0.499	3.4093
0.491	3.2183
0.483	2.9551
0.475	2.9545
0.467	2.6272
0.459	2.6242
0.451	2.1661
0.443	2.0032
0.435	1.9331
0.427	1.2676
0.419	1.3172
0.411	0.7832
0.403	0.7244
