Name: Dark grayish brown silty loam
Type: Soils
Class: Mollisol
Subclass: Agialboll
Particle Size: see additional information
Sample No.: 85P5339
Owner: JHU
Origin: Nez Perce Co., Id. via USDA Soil Conservation service.
Description: Parent material is loess from mixed material.  Dark
Measurement: Directional (10 degree) hemispherical reflectance
X Units: Wavelength (micrometers)
Y Units: Reflectance (percent)
wavelength	value
14.0112	1.5869
13.7147	1.7656
13.4304	1.7971
13.1577	1.7688
12.8959	1.8149
12.6443	1.6101
12.4023	1.571
12.1694	1.8569
11.945	2.4265
11.7289	2.8757
11.5203	2.7612
11.3191	2.7183
11.1248	2.6333
10.937	2.3039
10.7555	2.3755
10.5799	2.4685
10.4099	2.5659
10.2454	2.6208
10.0859	2.7458
9.9313	2.9634
9.7814	3.1409
9.636	3.4831
9.4948	3.6992
9.3577	3.8882
9.2245	3.8977
9.095	3.7661
8.9691	3.7534
8.8467	3.7322
8.7275	3.5322
8.6116	3.074
8.4986	3.3218
8.3886	3.3286
8.2814	3.4394
8.1769	3.28
8.075	2.6645
7.9756	2.4534
7.8786	2.2986
7.784	2.2087
7.6916	2.217
7.6014	2.2336
7.5133	2.2949
7.4272	2.3176
7.343	2.3149
7.2607	2.3481
7.1803	2.448
7.1016	2.533
7.0246	2.6555
6.9493	2.8774
6.8755	3.1811
6.8034	3.5898
6.7327	3.9858
6.6634	4.144
6.5956	4.0505
6.5292	3.8826
6.464	3.7339
6.4002	3.3904
6.3376	3.0376
6.2762	2.7185
6.216	2.3691
6.157	2.0632
6.099	1.9797
6.0421	2.1724
5.9863	2.5793
5.9315	3.1953
5.8777	4.1401
5.8249	5.1758
5.773	6.3701
5.722	7.5429
5.6719	8.4292
5.6227	8.6655
5.5744	8.9909
5.5268	9.6531
5.4801	10.2697
5.4341	10.5608
5.3889	9.789
5.3445	9.2112
5.3008	9.7534
5.2578	10.8904
5.2154	12.404
5.1738	13.0036
5.1328	13.218
5.0925	13.3874
5.0528	13.3694
5.0137	13.5742
4.9752	14.1997
4.9373	15.2019
4.9	16.278
4.8632	17.3344
4.827	17.8767
4.7913	18.1838
4.7561	18.4436
4.7215	18.6669
4.6873	18.7202
4.6536	19.0407
4.6205	19.3913
4.5877	19.6979
4.5555	19.9335
4.5237	20.093
4.4923	20.1081
4.4614	20.3146
4.4309	20.6503
4.4008	20.9602
4.3711	21.3461
4.3418	21.652
4.3129	21.8295
4.2844	21.4643
4.2563	22.1027
4.2285	22.402
4.2011	22.821
4.174	23.0593
4.1473	23.2465
4.1209	23.4037
4.0949	23.5392
4.0692	23.6235
4.0438	23.6738
4.0187	23.6982
3.994	23.6938
3.9695	23.6703
3.9453	23.5812
3.9214	23.4819
3.8979	23.2885
3.8746	23.0986
3.8515	22.8222
3.8288	22.5349
3.8063	22.205
3.7841	21.8112
3.7621	21.3962
3.7404	20.9248
3.7189	20.4653
3.6977	19.9926
3.6767	19.4887
3.656	18.9292
3.6355	18.4055
3.6152	17.8374
3.5951	17.2753
3.5753	16.6543
3.5557	16.0024
3.5363	15.3418
3.5171	14.4423
3.4981	13.5632
3.4793	13.1045
3.4607	12.5302
3.4423	11.8852
3.4241	11.0014
3.4061	10.5149
3.3883	10.3047
3.3707	9.9167
3.3533	9.6274
3.336	9.1982
3.3189	8.7702
3.302	8.2737
3.2853	7.7898
3.2687	7.3318
3.2523	6.865
3.2361	6.4585
3.22	6.0603
3.204	5.7097
3.1883	5.3354
3.1727	4.9504
3.1572	4.6606
3.1419	4.3323
3.1268	4.1074
3.1117	3.8664
3.0969	3.6401
3.0821	3.5327
3.0675	3.4082
3.0531	3.3149
3.0388	3.2251
3.0246	3.1655
3.0105	3.0439
2.9966	2.9499
2.9828	2.8596
2.9692	2.8205
2.9556	2.707
2.9422	2.6582
2.9289	2.6704
2.9157	2.656
2.9027	2.7363
2.8897	2.7605
2.8769	2.8091
2.8642	2.8559
2.8516	2.9451
2.8391	3.0361
2.8267	3.0847
2.8144	3.0476
2.8022	2.9336
2.7902	2.8574
2.7782	2.7151
2.7664	2.4578
2.7546	2.387
2.7429	2.9692
2.7314	3.855
2.7199	5.2644
2.7085	6.303
2.6973	8.4055
2.6861	16.78
2.675	21.9709
2.664	24.3581
2.6531	26.1542
2.6423	27.2446
2.6315	27.9015
2.6209	28.5021
2.6103	28.9836
2.5999	29.2961
2.5895	29.5126
2.5792	29.8283
2.569	29.9467
2.5588	30.1396
2.5487	30.2343
2.5388	30.3359
2.5289	30.4235
2.519	30.5798
2.5093	30.7773
2.4996	30.932
2.49	31.1669
2.4805	31.4284
2.471	31.7079
2.4616	31.9584
2.4523	32.308
2.4431	32.5837
2.4339	32.9252
2.4248	33.2743
2.4157	33.6806
2.4068	33.9494
2.3979	34.1169
2.389	34.1938
2.3802	34.3905
2.3715	34.5766
2.3629	34.8393
2.3543	34.9377
2.3458	35.1715
2.3373	35.3673
2.3289	35.528
2.3206	35.7267
2.3123	35.8258
2.3041	35.8571
2.2959	35.9474
2.2878	36.0683
2.2798	36.1491
2.2718	36.3151
2.2638	36.3022
2.2559	36.1081
2.2481	36.1034
2.2403	36.0158
2.2326	36.0304
2.225	35.9635
2.2173	35.7318
2.2098	35.3463
2.2023	35.3993
2.1948	35.8471
2.1874	36.2191
2.18	36.4816
2.1727	36.5844
2.1655	36.8256
2.1583	36.9096
2.1511	37.1249
2.144	37.1855
2.1369	37.2721
2.1299	37.3336
2.1229	37.2758
2.116	37.1439
2.1091	37.1378
2.1023	37.0924
2.0955	37.1549
2.0887	37.0456
2.082	37.0846
2.06	37.0932
2.028	36.2507
1.996	35.5753
1.964	33.8157
1.932	32.4922
1.9	31.5547
1.868	37.1907
1.836	38.3432
1.804	38.0711
1.772	37.8825
1.74	37.957
1.708	37.7911
1.676	37.404
1.644	37.1558
1.612	36.7654
1.58	36.5146
1.548	36.273
1.516	35.7412
1.484	34.9687
1.452	34.4525
1.42	33.4998
1.388	33.3472
1.356	34.3068
1.324	34.1031
1.292	33.1775
1.26	32.6021
1.228	31.9816
1.196	31.2872
1.164	30.2807
1.132	29.1777
1.1	28.0863
1.068	27.1532
1.036	25.8533
1.004	24.6018
0.972	23.2667
0.94	22.2212
0.908	20.8833
0.876	19.3467
0.844	18.5757
0.812	17.1147
0.795	16.0261
0.787	15.7619
0.779	15.3462
0.771	14.9595
0.763	14.577
0.755	14.2294
0.747	13.9412
0.739	13.6182
0.731	13.3878
0.723	13.138
0.715	12.7727
0.707	12.2981
0.699	11.9699
0.691	11.5597
0.683	11.1551
0.675	11.1217
0.667	10.9314
0.659	10.4166
0.651	10.3178
0.643	10.1961
0.635	9.728
0.627	9.6615
0.619	9.2945
0.611	8.7502
0.603	8.6663
0.595	8.4099
0.587	8.0825
0.579	7.8913
0.571	7.504
0.563	7.3255
0.555	6.5927
0.547	6.6506
0.539	6.1845
0.531	5.7115
0.523	5.5029
0.515	5.2355
0.507	4.9676
0.499	4.5515
0.491	4.2461
0.483	4.0766
0.475	4.0075
0.467	3.4536
0.459	3.3078
0.451	2.824
0.443	2.5725
0.435	2.0605
0.427	1.708
0.419	1.617
0.411	0.9735
0.403	0.5067
