Name: Pale brown silty loam
Type: Soils
Class: Alfisol
Subclass: Fragiboralf
Particle Size: see additional information
Sample No.: 86P1994
Owner: JHU
Origin: Bonner Co., Id. via USDA Soil Conservation service.
Description: Pale brown silty loam (medial, typic).
Measurement: Directional (10 degree) hemispherical reflectance
X Units: Wavelength (micrometers)
Y Units: Reflectance (percent)
wavelength	value
14.0112	1.6553
13.7147	1.907
13.4304	1.9773
13.1577	1.9075
12.8959	1.8545
12.6443	1.5986
12.4023	1.5088
12.1694	1.7529
11.945	2.3987
11.7289	2.9824
11.5203	3.0493
11.3191	3.0273
11.1248	2.79
10.937	2.5478
10.7555	2.5073
10.5799	2.5015
10.4099	2.5796
10.2454	2.5933
10.0859	2.7258
9.9313	2.8699
9.7814	2.9416
9.636	3.2317
9.4948	3.3264
9.3577	4.1406
9.2245	4.5056
9.095	4.4685
8.9691	4.2683
8.8467	4.0061
8.7275	3.6164
8.6116	2.9575
8.4986	3.4187
8.3886	3.4353
8.2814	3.667
8.1769	3.6973
8.075	2.9333
7.9756	2.4075
7.8786	1.9636
7.784	1.7585
7.6916	1.7964
7.6014	1.7571
7.5133	1.8696
7.4272	1.9226
7.343	2.0356
7.2607	2.1533
7.1803	2.2954
7.1016	2.4233
7.0246	2.647
6.9493	2.9971
6.8755	3.302
6.8034	3.6689
6.7327	4.0923
6.6634	4.1709
6.5956	3.9966
6.5292	3.8691
6.464	3.8962
6.4002	3.7651
6.3376	3.4724
6.2762	3.0859
6.216	2.6875
6.157	2.4182
6.099	2.4604
6.0421	2.6057
5.9863	3.0283
5.9315	3.637
5.8777	4.8083
5.8249	6.175
5.773	7.4402
5.722	8.5334
5.6719	9.2534
5.6227	9.2265
5.5744	9.4355
5.5268	10.2898
5.4801	11.1743
5.4341	11.5796
5.3889	10.4023
5.3445	9.5075
5.3008	10.0996
5.2578	11.4743
5.2154	13.3054
5.1738	13.9082
5.1328	14.063
5.0925	14.1667
5.0528	13.99
5.0137	14.1379
4.9752	14.9069
4.9373	16.0876
4.9	17.3266
4.8632	18.5034
4.827	19.0029
4.7913	19.2888
4.7561	19.5178
4.7215	19.7536
4.6873	19.8259
4.6536	20.1249
4.6205	20.4753
4.5877	20.8051
4.5555	21.0307
4.5237	21.133
4.4923	21.1411
4.4614	21.3037
4.4309	21.6516
4.4008	21.968
4.3711	22.2546
4.3418	22.5624
4.3129	22.6833
4.2844	22.7009
4.2563	22.8217
4.2285	23.0319
4.2011	23.1999
4.174	23.2431
4.1473	23.3137
4.1209	23.3283
4.0949	23.3359
4.0692	23.3037
4.0438	23.2219
4.0187	23.1806
3.994	23.1213
3.9695	23.0158
3.9453	22.9211
3.9214	22.8112
3.8979	22.6276
3.8746	22.4164
3.8515	22.1784
3.8288	21.8518
3.8063	21.4924
3.7841	21.0146
3.7621	20.5537
3.7404	20.0141
3.7189	19.5061
3.6977	18.9414
3.6767	18.3557
3.656	17.8064
3.6355	17.237
3.6152	16.5969
3.5951	16.0019
3.5753	15.3261
3.5557	14.7258
3.5363	14.0908
3.5171	13.27
3.4981	12.4406
3.4793	11.9917
3.4607	11.4594
3.4423	10.8606
3.4241	10.0876
3.4061	9.5906
3.3883	9.4919
3.3707	9.1626
3.3533	8.8777
3.336	8.5827
3.3189	8.2095
3.302	7.8557
3.2853	7.4504
3.2687	7.0757
3.2523	6.7768
3.2361	6.5029
3.22	6.1936
3.204	5.8884
3.1883	5.6177
3.1727	5.333
3.1572	5.0542
3.1419	4.8672
3.1268	4.6477
3.1117	4.4724
3.0969	4.2969
3.0821	4.1501
3.0675	4.0449
3.0531	3.9499
3.0388	3.8176
3.0246	3.7202
3.0105	3.6995
2.9966	3.5869
2.9828	3.4839
2.9692	3.4172
2.9556	3.387
2.9422	3.3662
2.9289	3.3865
2.9157	3.2654
2.9027	3.4607
2.8897	3.4729
2.8769	3.407
2.8642	3.5796
2.8516	3.6643
2.8391	3.7439
2.8267	3.8245
2.8144	3.866
2.8022	3.9333
2.7902	3.887
2.7782	3.8335
2.7664	3.6152
2.7546	3.6338
2.7429	4.2756
2.7314	5.4465
2.7199	7.4468
2.7085	9.9052
2.6973	13.6464
2.6861	20.8615
2.675	26.5905
2.664	30.017
2.6531	32.5502
2.6423	34.0978
2.6315	34.8781
2.6209	35.4513
2.6103	36.255
2.5999	36.6972
2.5895	36.9132
2.5792	37.2245
2.569	37.2296
2.5588	37.5568
2.5487	37.685
2.5388	37.9069
2.5289	37.9562
2.519	38.0602
2.5093	38.3461
2.4996	38.4042
2.49	38.758
2.4805	39.038
2.471	39.3742
2.4616	39.758
2.4523	39.9469
2.4431	40.3136
2.4339	40.7333
2.4248	41.32
2.4157	41.6964
2.4068	42.1842
2.3979	42.3832
2.389	42.5475
2.3802	42.8278
2.3715	43.0419
2.3629	43.163
2.3543	43.2543
2.3458	43.3683
2.3373	43.5272
2.3289	43.9559
2.3206	44.2101
2.3123	44.3859
2.3041	44.5045
2.2959	44.7177
2.2878	44.8246
2.2798	44.9208
2.2718	45.0013
2.2638	45.1154
2.2559	45.0013
2.2481	44.9855
2.2403	44.9491
2.2326	45.0392
2.225	44.8419
2.2173	44.4811
2.2098	44.0797
2.2023	43.9467
2.1948	44.5233
2.1874	44.9081
2.18	45.3663
2.1727	45.6896
2.1655	46.1156
2.1583	46.2387
2.1511	46.5533
2.144	46.6073
2.1369	46.786
2.1299	46.8617
2.1229	46.7616
2.116	46.913
2.1091	46.7714
2.1023	46.9376
2.0955	46.6449
2.0887	46.9689
2.082	46.5516
2.06	46.7729
2.028	45.9919
1.996	45.6158
1.964	43.3093
1.932	42.146
1.9	41.8911
1.868	47.7251
1.836	48.9721
1.804	49.099
1.772	48.7463
1.74	48.8068
1.708	49.1527
1.676	48.5667
1.644	48.4974
1.612	47.9069
1.58	48.5213
1.548	47.6875
1.516	47.5923
1.484	46.7314
1.452	46.1437
1.42	45.536
1.388	45.3021
1.356	46.6392
1.324	46.3522
1.292	45.5878
1.26	45.269
1.228	45.0849
1.196	43.491
1.164	42.9519
1.132	42.5191
1.1	41.9204
1.068	41.6554
1.036	39.9953
1.004	39.8804
0.972	38.792
0.94	38.5427
0.908	37.7573
0.876	36.7002
0.844	36.8489
0.812	35.9656
0.795	36.2701
0.787	36.0471
0.779	35.7541
0.771	35.3391
0.763	35.1274
0.755	34.448
0.747	34.1212
0.739	33.8018
0.731	33.1014
0.723	32.756
0.715	32.2801
0.707	31.7222
0.699	31.2266
0.691	30.9673
0.683	30.1385
0.675	29.4483
0.667	29.2511
0.659	28.6076
0.651	28.2381
0.643	27.4863
0.635	27.4965
0.627	26.1424
0.619	25.7702
0.611	24.9499
0.603	24.0137
0.595	23.803
0.587	22.7776
0.579	22.07
0.571	21.083
0.563	20.2119
0.555	18.1634
0.547	17.1207
0.539	16.0982
0.531	14.8249
0.523	13.87
0.515	13.009
0.507	11.6925
0.499	10.7738
0.491	9.8034
0.483	9.0725
0.475	8.5132
0.467	7.8291
0.459	7.2093
0.451	6.5315
0.443	5.7724
0.435	4.813
0.427	3.8245
0.419	2.8201
0.411	1.8883
0.403	1.1856
