Name: Gray silty clay
Type: Soils
Class: Mollisol
Subclass: Haplaquoll
Particle Size: see additional information
Sample No.: 86P4603
Owner: JHU
Origin: Humboldt Co., Nv. via USDA Soil Conservation service.
Description: Gray silty clay, (fine, montmorillonitic, mesic cumulic).
Measurement: Directional (10 degree) hemispherical reflectance
X Units: Wavelength (micrometers)
Y Units: Reflectance (percent)
wavelength	value
14.0112	1.0947
13.7147	1.2869
13.4304	1.3479
13.1577	1.4031
12.8959	1.4333
12.6443	1.3088
12.4023	1.2444
12.1694	1.5461
11.945	1.918
11.7289	2.3935
11.5203	2.3276
11.3191	2.22
11.1248	2.353
10.937	2.0991
10.7555	2.1467
10.5799	2.2205
10.4099	2.2192
10.2454	2.1504
10.0859	2.126
9.9313	2.1951
9.7814	2.2854
9.636	2.4075
9.4948	2.4746
9.3577	2.4729
9.2245	2.481
9.095	2.3906
8.9691	2.3657
8.8467	2.1934
8.7275	2.0195
8.6116	1.761
8.4986	1.7834
8.3886	1.7314
8.2814	1.7073
8.1769	1.6833
8.075	1.5701
7.9756	1.7407
7.8786	2.0015
7.784	2.1746
7.6916	2.3647
7.6014	2.5063
7.5133	2.6387
7.4272	2.7712
7.343	2.7788
7.2607	2.6565
7.1803	2.2324
7.1016	1.7268
7.0246	1.3137
6.9493	1.1667
6.8755	1.1055
6.8034	1.1726
6.7327	1.2659
6.6634	1.3162
6.5956	1.4165
6.5292	1.8872
6.464	2.3618
6.4002	2.3635
6.3376	2.2029
6.2762	2.0356
6.216	1.769
6.157	1.4568
6.099	1.3972
6.0421	1.5554
5.9863	1.9329
5.9315	2.5508
5.8777	3.4292
5.8249	4.4202
5.773	5.4402
5.722	6.3306
5.6719	6.9858
5.6227	7.2336
5.5744	6.2659
5.5268	7.7751
5.4801	8.3821
5.4341	8.6565
5.3889	8.4956
5.3445	8.3249
5.3008	8.7903
5.2578	9.6477
5.2154	10.6633
5.1738	11.2151
5.1328	11.5129
5.0925	11.7238
5.0528	11.8965
5.0137	12.1201
4.9752	12.6052
4.9373	13.2568
4.9	14.0207
4.8632	14.708
4.827	15.1442
4.7913	15.4607
4.7561	15.6416
4.7215	15.7724
4.6873	15.7878
4.6536	15.9929
4.6205	16.322
4.5877	16.583
4.5555	16.8022
4.5237	17.0022
4.4923	17.1933
4.4614	17.4729
4.4309	17.79
4.4008	18.1279
4.3711	18.5124
4.3418	18.873
4.3129	19.1799
4.2844	19.1152
4.2563	19.7526
4.2285	20.1889
4.2011	20.7509
4.174	21.1276
4.1473	21.4416
4.1209	21.7573
4.0949	21.9179
4.0692	21.9826
4.0438	21.8005
4.0187	20.8232
3.994	18.6345
3.9695	17.8593
3.9453	19.6904
3.9214	20.7482
3.8979	20.872
3.8746	20.8383
3.8515	20.7219
3.8288	20.8586
3.8063	21.0163
3.7841	20.9721
3.7621	20.5588
3.7404	20.1464
3.7189	19.6921
3.6977	19.1979
3.6767	18.7238
3.656	18.2043
3.6355	17.6721
3.6152	17.1252
3.5951	16.5229
3.5753	15.8835
3.5557	15.2456
3.5363	14.5017
3.5171	13.4321
3.4981	12.3935
3.4793	11.8674
3.4607	11.6018
3.4423	11.0036
3.4241	10.1181
3.4061	9.7007
3.3883	9.4621
3.3707	9.0576
3.3533	8.7588
3.336	8.4868
3.3189	8.0054
3.302	7.656
3.2853	7.1775
3.2687	6.7409
3.2523	6.3166
3.2361	5.9385
3.22	5.5615
3.204	5.2341
3.1883	4.925
3.1727	4.5803
3.1572	4.2971
3.1419	4.0102
3.1268	3.7119
3.1117	3.4917
3.0969	3.3411
3.0821	3.1601
3.0675	3.0776
3.0531	2.9846
3.0388	2.9331
3.0246	2.8684
3.0105	2.7707
2.9966	2.6887
2.9828	2.6362
2.9692	2.499
2.9556	2.4099
2.9422	2.4109
2.9289	2.4055
2.9157	2.3352
2.9027	2.4382
2.8897	2.4893
2.8769	2.5351
2.8642	2.5405
2.8516	2.6755
2.8391	2.7131
2.8267	2.7688
2.8144	2.6601
2.8022	2.6418
2.7902	2.6103
2.7782	2.613
2.7664	2.4797
2.7546	2.4997
2.7429	3.0754
2.7314	4.2436
2.7199	6.1167
2.7085	7.6553
2.6973	10.7431
2.6861	18.2023
2.675	21.8793
2.664	24.027
2.6531	25.7453
2.6423	26.829
2.6315	27.3703
2.6209	28.0251
2.6103	28.5864
2.5999	28.8852
2.5895	29.1686
2.5792	29.3178
2.569	29.578
2.5588	29.6459
2.5487	29.8234
2.5388	29.9401
2.5289	30.0363
2.519	30.2861
2.5093	30.5426
2.4996	30.7575
2.49	31.0329
2.4805	31.3337
2.471	31.6965
2.4616	32.061
2.4523	32.4599
2.4431	32.7907
2.4339	33.2572
2.4248	33.7284
2.4157	34.1833
2.4068	34.463
2.3979	34.8124
2.389	35.0898
2.3802	35.245
2.3715	35.5805
2.3629	35.7953
2.3543	35.975
2.3458	36.1645
2.3373	36.4569
2.3289	36.6278
2.3206	36.7375
2.3123	36.7665
2.3041	36.7453
2.2959	36.8542
2.2878	37.0646
2.2798	37.2279
2.2718	37.4118
2.2638	37.4428
2.2559	37.3703
2.2481	37.3026
2.2403	37.4242
2.2326	37.4945
2.225	37.4203
2.2173	37.3231
2.2098	36.9118
2.2023	37.2973
2.1948	37.6156
2.1874	37.9794
2.18	38.1879
2.1727	38.5182
2.1655	38.6308
2.1583	38.6957
2.1511	38.9215
2.144	38.9879
2.1369	39.0099
2.1299	38.9679
2.1229	39.1149
2.116	39.0402
2.1091	38.9301
2.1023	38.9511
2.0955	38.9713
2.0887	39.08
2.082	39.0038
2.06	39.177
2.028	38.4785
1.996	37.3726
1.964	35.8574
1.932	33.1078
1.9	31.798
1.868	39.8524
1.836	41.4353
1.804	41.1547
1.772	40.8455
1.74	41.3104
1.708	40.8684
1.676	40.9178
1.644	40.8541
1.612	40.6204
1.58	40.0134
1.548	39.8212
1.516	39.0728
1.484	38.4111
1.452	37.583
1.42	36.9639
1.388	36.2045
1.356	37.7575
1.324	37.215
1.292	36.9094
1.26	35.9931
1.228	35.0628
1.196	34.5716
1.164	33.4944
1.132	32.2871
1.1	31.1827
1.068	29.8573
1.036	29.0531
1.004	27.7064
0.972	26.5863
0.94	24.724
0.908	23.3375
0.876	22.2922
0.844	20.9148
0.812	19.8715
0.795	18.4444
0.787	18.3949
0.779	17.9135
0.771	17.3632
0.763	17.0203
0.755	16.6128
0.747	16.3384
0.739	16.0937
0.731	15.6364
0.723	15.0617
0.715	14.7823
0.707	14.5973
0.699	14.1905
0.691	13.6147
0.683	12.959
0.675	12.8672
0.667	12.6447
0.659	12.4386
0.651	12.1064
0.643	11.5006
0.635	11.4014
0.627	11.1658
0.619	10.7566
0.611	10.676
0.603	10.3285
0.595	10.3871
0.587	9.9656
0.579	9.4077
0.571	9.3701
0.563	8.9651
0.555	8.1561
0.547	7.7945
0.539	8.0031
0.531	7.3833
0.523	7.271
0.515	6.9331
0.507	6.329
0.499	6.086
0.491	5.8212
0.483	5.6132
0.475	5.3232
0.467	4.6074
0.459	4.6331
0.451	4.1753
0.443	3.8903
0.435	3.4584
0.427	2.6177
0.419	2.1749
0.411	1.5996
0.403	1.217
