Name: Reddish brown fine sandy loam
Type: Soils
Class: Alfisol
Subclass: Paleustalf
Particle Size: see additional information
Sample No.: 87P1087
Owner: JHU
Origin: Lubbock Co., Tx. via USDA Soil Conservation service.
Description: The parent material is eolian from broad plain in level
Measurement: Directional (10 degree) hemispherical reflectance
X Units: Wavelength (micrometers)
Y Units: Reflectance (percent)
wavelength	value
14.0112	2.2165
13.7147	2.5613
13.4304	2.6755
13.1578	2.7981
12.8959	3.5764
12.6443	3.0388
12.4023	2.4966
12.1694	1.7036
11.945	2.3638
11.7289	2.876
11.5203	3.134
11.3191	3.28
11.1248	3.4182
10.937	3.4502
10.7555	3.4739
10.5799	3.6279
10.4099	3.8091
10.2454	4.1753
10.0859	4.6462
9.9313	5.3015
9.7814	5.8066
9.636	6.7903
9.4948	7.9924
9.3577	11.2873
9.2245	12.3364
9.095	11.8059
8.9691	11.2661
8.8467	11.2414
8.7275	10.6443
8.6116	8.5842
8.4986	11.4033
8.3886	12.2773
8.2814	13.0966
8.1769	12.7319
8.075	8.5071
7.9756	5.26
7.8786	3.1125
7.784	2.2859
7.6916	1.8901
7.6014	1.5632
7.5133	1.4543
7.4272	1.3686
7.343	1.311
7.2607	1.3103
7.1803	1.4016
7.1016	1.4548
7.0246	1.4604
6.9493	1.5754
6.8755	1.6355
6.8034	1.7085
6.7327	1.8572
6.6634	1.8879
6.5956	1.8015
6.5292	1.8389
6.464	2.2143
6.4002	2.1765
6.3376	1.8469
6.2762	1.5212
6.216	1.3967
6.157	1.4182
6.099	1.594
6.0421	1.6807
5.9863	1.7353
5.9315	1.7759
5.8777	2.3723
5.8249	3.1833
5.773	4.0354
5.722	4.9202
5.6719	5.0661
5.6227	4.1257
5.5744	4.1484
5.5268	4.8125
5.4801	5.8035
5.4341	6.0027
5.3889	4.4748
5.3445	3.9206
5.3008	4.1304
5.2578	4.8408
5.2154	6.5215
5.1738	6.979
5.1328	6.8201
5.0925	6.6592
5.0528	6.2773
5.0137	6.2754
4.9752	6.9475
4.9373	8.5305
4.9	11.4128
4.8632	15.934
4.827	18.1884
4.7913	19.5659
4.7561	20.5248
4.7215	20.9421
4.6873	19.6823
4.6536	21.0422
4.6205	22.7385
4.5877	23.455
4.5555	23.4807
4.5237	21.9953
4.4923	19.6733
4.4614	19.3151
4.4309	20.5925
4.4008	21.9128
4.3711	23.6472
4.3418	24.9321
4.3129	25.1948
4.2844	24.9694
4.2563	25.5424
4.2285	25.6738
4.2011	25.9755
4.174	26.3566
4.1473	26.6684
4.1209	26.9413
4.0949	27.3088
4.0692	27.445
4.0438	27.351
4.0187	27.1232
3.994	26.9389
3.9695	26.9208
3.9453	26.9416
3.9214	26.8246
3.8979	26.466
3.8746	25.9914
3.8515	25.5285
3.8288	25.165
3.8063	24.8202
3.7841	24.2377
3.7621	23.7094
3.7404	23.0727
3.7189	22.6059
3.6977	22.2724
3.6767	21.821
3.656	21.3164
3.6355	20.8134
3.6152	20.2172
3.5951	19.5744
3.5753	18.8684
3.5557	18.0424
3.5363	17.0378
3.5171	15.2299
3.4981	13.9436
3.4793	13.851
3.4607	13.3557
3.4423	12.5481
3.4241	11.0595
3.4061	10.9655
3.3883	11.3576
3.3707	11.3703
3.3533	11.7026
3.336	11.6675
3.3189	11.3225
3.302	10.8706
3.2853	10.3606
3.2687	9.8655
3.2523	9.3647
3.2361	8.9875
3.22	8.5742
3.2041	8.1902
3.1883	7.8308
3.1727	7.4468
3.1572	7.0378
3.1419	6.6907
3.1268	6.3589
3.1117	6.0923
3.0969	5.8725
3.0821	5.6977
3.0675	5.5307
3.0531	5.3835
3.0388	5.2612
3.0246	5.1711
3.0105	5.0845
2.9966	5.0266
2.9828	4.9685
2.9692	4.7861
2.9556	4.7136
2.9422	4.6933
2.9289	4.727
2.9157	4.7734
2.9027	4.8359
2.8897	4.9404
2.8769	5.0442
2.8642	5.1374
2.8516	5.2556
2.8391	5.362
2.8267	5.4504
2.8144	5.5151
2.8022	5.562
2.7902	5.5508
2.7782	5.3877
2.7664	4.9834
2.7546	4.918
2.7429	5.6423
2.7314	6.5002
2.7199	8.1733
2.7085	8.5715
2.6973	11.1958
2.6861	21.7531
2.675	28.3896
2.664	31.5612
2.6531	33.7116
2.6423	35.0153
2.6315	35.756
2.6209	36.4149
2.6103	36.9535
2.5999	37.2245
2.5895	37.4462
2.5792	37.6325
2.569	37.766
2.5588	37.9489
2.5487	38.1332
2.5388	38.1088
2.5289	38.1278
2.519	38.1681
2.5093	38.2318
2.4996	38.3979
2.49	38.5998
2.4805	38.8947
2.471	39.2262
2.4616	39.6928
2.4523	39.9447
2.4431	40.431
2.4339	40.9264
2.4248	41.4142
2.4157	41.9408
2.4068	42.2626
2.3979	42.4083
2.389	42.4669
2.3802	42.7694
2.3715	42.9286
2.3629	43.1725
2.3543	43.1444
2.3458	43.236
2.3373	43.6176
2.3289	43.9608
2.3206	44.1061
2.3123	44.2828
2.3041	44.4374
2.2959	44.7294
2.2878	44.9135
2.2798	45.1505
2.2718	45.0602
2.2638	45.1654
2.2559	45.2372
2.2481	45.327
2.2403	45.4906
2.2326	45.3776
2.225	45.1845
2.2173	44.7821
2.2098	43.7985
2.2023	44.1466
2.1948	44.5817
2.1874	44.9804
2.18	45.3502
2.1727	45.5712
2.1655	45.9066
2.1583	46.2618
2.1511	46.4742
2.144	46.6437
2.1369	46.6769
2.1299	46.704
2.1229	46.743
2.116	46.7958
2.1091	46.7994
2.1023	46.8934
2.0955	46.7301
2.0887	46.7499
2.082	46.872
2.06	46.7907
2.028	45.9376
1.996	45.438
1.964	43.2448
1.932	41.6313
1.9	41.479
1.868	47.8454
1.836	48.9991
1.804	49.1739
1.772	48.6622
1.74	48.6311
1.708	48.5735
1.676	48.5052
1.644	48.3605
1.612	47.6475
1.58	47.8217
1.548	47.3666
1.516	46.8289
1.484	46.1593
1.452	45.6414
1.42	45.1277
1.388	45.3068
1.356	46.6064
1.324	46.3937
1.292	46.2558
1.26	46.0422
1.228	44.9735
1.196	44.4991
1.164	44.1615
1.132	43.4466
1.1	42.9583
1.068	42.3909
1.036	41.5564
1.004	40.8208
0.972	39.6064
0.94	38.8482
0.908	37.4995
0.876	36.3823
0.844	35.5974
0.812	34.3733
0.795	33.633
0.787	33.3791
0.779	33.2089
0.771	32.8149
0.763	32.5999
0.755	32.2298
0.747	31.9642
0.739	31.5511
0.731	31.0473
0.723	30.8369
0.715	30.3507
0.707	29.8867
0.699	29.3293
0.691	28.8925
0.683	28.6048
0.675	28.2159
0.667	27.7983
0.659	27.2835
0.651	26.7957
0.643	26.677
0.635	26.1003
0.627	25.8766
0.619	25.4082
0.611	24.9598
0.603	24.3997
0.595	23.9724
0.587	23.3729
0.579	22.9442
0.571	22.1867
0.563	21.6342
0.555	20.3137
0.547	19.6457
0.539	19.1869
0.531	18.3271
0.523	17.9917
0.515	17.5984
0.507	17.201
0.499	16.7853
0.491	16.479
0.483	16.0541
0.475	15.8553
0.467	15.4316
0.459	15.1556
0.451	14.6718
0.443	14.2902
0.435	13.7765
0.427	13.4234
0.419	13.0663
0.411	12.4251
0.403	12.2214
