Name: Brown silty loam
Type: Soils
Class: Aridisol
Subclass: Camborthid
Particle Size: see additional information
Sample No.: 87P337
Owner: JHU
Origin: Klickitat Co., Wa. via USDA Soil Conservation service.
Description: The parent material is volcanic ash from mixed material.
Measurement: Directional (10 degree) hemispherical reflectance
X Units: Wavelength (micrometers)
Y Units: Reflectance (percent)
wavelength	value
14.0112	1.9971
13.7147	2.1526
13.4304	2.1948
13.1577	2.1421
12.8959	2.1758
12.6443	1.9451
12.4023	1.9219
12.1694	2.3124
11.945	2.977
11.7289	3.4629
11.5203	3.3524
11.3191	3.3647
11.1248	3.2773
10.937	3.04
10.7555	3.0828
10.5799	3.1318
10.4099	3.3066
10.2454	3.4619
10.0859	3.7886
9.9313	4.1526
9.7814	4.4883
9.636	5.0669
9.4948	5.3364
9.3577	5.8652
9.2245	6.0649
9.095	5.876
8.9691	5.6799
8.8467	5.7444
8.7275	5.428
8.6116	4.6736
8.4986	5.1799
8.3886	5.1094
8.2814	5.1474
8.1769	4.7429
8.075	3.4978
7.9756	2.7727
7.8786	2.2778
7.784	2.1124
7.6916	2.1716
7.6014	2.2253
7.5133	2.4204
7.4272	2.6089
7.343	2.8389
7.2607	3.1345
7.1803	3.4961
7.1016	3.7856
7.0246	4.0261
6.9493	4.4382
6.8755	4.8323
6.8034	5.1907
6.7327	5.509
6.6634	5.6291
6.5956	5.5649
6.5292	5.605
6.464	6.1106
6.4002	6.196
6.3376	5.7224
6.2762	4.9314
6.216	4.0881
6.157	3.6072
6.099	3.6184
6.0421	3.9919
5.9863	4.6052
5.9315	5.3515
5.8777	6.7607
5.8249	8.0503
5.773	9.0095
5.722	9.8447
5.6719	10.2024
5.6227	9.6504
5.5744	9.6379
5.5268	10.4223
5.4801	11.4231
5.4341	11.791
5.3889	10.3904
5.3445	9.5
5.3008	10.0735
5.2578	11.5735
5.2154	13.8305
5.1738	14.666
5.1328	14.9213
5.0925	15.103
5.0528	15.0034
5.0137	15.2031
4.9752	16.2961
4.9373	18.0561
4.9	20.0913
4.8632	22.1633
4.827	23.1347
4.7913	23.6976
4.7561	24.2153
4.7215	24.6579
4.6873	24.7543
4.6536	25.3454
4.6205	26.0659
4.5877	26.6017
4.5555	27.0009
4.5237	27.113
4.4923	26.9421
4.4614	27.142
4.4309	27.6659
4.4008	28.1916
4.3711	28.7836
4.3418	29.2814
4.3129	29.5768
4.2844	29.662
4.2563	30.0051
4.2285	30.2621
4.2011	30.5553
4.174	30.78
4.1473	30.9645
4.1209	31.1134
4.0949	31.3041
4.0692	31.3569
4.0438	31.4676
4.0187	31.4545
3.994	31.423
3.9695	31.4015
3.9453	31.3444
3.9214	31.2174
3.8979	30.9709
3.8746	30.7525
3.8515	30.4653
3.8288	30.1313
3.8063	29.7301
3.7841	29.3349
3.7621	28.8281
3.7404	28.3356
3.7189	27.8693
3.6977	27.3549
3.6767	26.7958
3.656	26.2629
3.6355	25.7101
3.6152	25.1093
3.5951	24.4653
3.5753	23.7429
3.5557	23.006
3.5363	22.185
3.5171	21.0187
3.4981	20.0632
3.4793	19.5575
3.4607	18.9428
3.4423	18.0681
3.4241	16.8881
3.4061	16.4213
3.3883	16.2273
3.3707	15.8227
3.3533	15.4692
3.336	15.0691
3.3189	14.5258
3.302	13.8935
3.2853	13.2995
3.2687	12.6682
3.2523	12.1223
3.2361	11.5403
3.22	11.0168
3.204	10.4831
3.1883	9.9616
3.1727	9.4425
3.1572	8.928
3.1419	8.4587
3.1268	7.9848
3.1117	7.6719
3.0969	7.3154
3.0821	7.0613
3.0675	6.8769
3.0531	6.6774
3.0388	6.5464
3.0246	6.3879
3.0105	6.2607
2.9966	6.1018
2.9828	5.8816
2.9692	5.7505
2.9556	5.654
2.9422	5.5488
2.9289	5.5564
2.9157	5.5454
2.9027	5.6079
2.8897	5.7148
2.8769	5.7466
2.8642	5.9158
2.8516	5.947
2.8391	5.9109
2.8267	5.7182
2.8144	5.4577
2.8022	5.177
2.7902	4.8994
2.7782	4.5327
2.7664	4.1985
2.7546	4.1929
2.7429	5.1089
2.7314	6.4192
2.7199	8.6579
2.7085	10.0732
2.6973	13.2907
2.6861	23.11
2.675	28.2206
2.664	30.8551
2.6531	32.2665
2.6423	33.1811
2.6315	33.7387
2.6209	34.1891
2.6103	34.4976
2.5999	34.7968
2.5895	34.9743
2.5792	35.0785
2.569	35.1979
2.5588	35.3197
2.5487	35.4525
2.5388	35.5204
2.5289	35.5924
2.519	35.6708
2.5093	35.7001
2.4996	35.693
2.49	35.9496
2.4805	36.0368
2.471	36.2482
2.4616	36.3859
2.4523	36.5977
2.4431	36.8451
2.4339	36.9533
2.4248	37.2187
2.4157	37.4262
2.4068	37.6017
2.3979	37.6383
2.389	37.6457
2.3802	37.7194
2.3715	37.9423
2.3629	38.036
2.3543	37.8686
2.3458	37.9413
2.3373	38.1259
2.3289	38.3177
2.3206	38.4511
2.3123	38.4916
2.3041	38.4535
2.2959	38.5351
2.2878	38.6298
2.2798	38.7318
2.2718	38.8295
2.2638	38.9203
2.2559	38.8048
2.2481	38.779
2.2403	38.7194
2.2326	38.7977
2.225	38.6217
2.2173	38.4499
2.2098	38.2211
2.2023	38.2282
2.1948	38.6789
2.1874	38.9088
2.18	39.1901
2.1727	39.36
2.1655	39.4201
2.1583	39.6275
2.1511	39.7851
2.144	39.9909
2.1369	39.8168
2.1299	40.1217
2.1229	39.8183
2.116	39.7943
2.1091	40.0382
2.1023	40.0097
2.0955	40.0231
2.0887	40.0297
2.082	39.8374
2.06	39.8002
2.028	39.4992
1.996	39.3351
1.964	37.7234
1.932	36.821
1.9	35.4649
1.868	40.0084
1.836	40.9384
1.804	41.1026
1.772	41.362
1.74	41.11
1.708	41.1482
1.676	40.8739
1.644	40.6578
1.612	39.9519
1.58	40.3961
1.548	39.915
1.516	39.9761
1.484	39.4852
1.452	38.8783
1.42	38.0431
1.388	38.0156
1.356	39.0516
1.324	39.0288
1.292	39.0804
1.26	37.9687
1.228	37.9692
1.196	37.5588
1.164	37.1715
1.132	36.5011
1.1	35.9647
1.068	35.5526
1.036	34.3633
1.004	34.1842
0.972	33.9199
0.94	33.7365
0.908	33.4391
0.876	33.4147
0.844	33.6154
0.812	33.2299
0.795	33.4218
0.787	32.9481
0.779	33.0234
0.771	32.3666
0.763	32.3795
0.755	31.7104
0.747	31.4967
0.739	30.7897
0.731	30.4736
0.723	30.1098
0.715	29.7567
0.707	29.0692
0.699	28.6887
0.691	28.2537
0.683	27.6848
0.675	27.2376
0.667	26.8985
0.659	26.5124
0.651	26.0157
0.643	25.5197
0.635	25.0036
0.627	24.0513
0.619	23.6652
0.611	22.99
0.603	22.293
0.595	21.6403
0.587	21.0165
0.579	20.6936
0.571	19.6293
0.563	18.7503
0.555	17.0073
0.547	16.066
0.539	15.421
0.531	14.2777
0.523	13.578
0.515	12.4577
0.507	11.6565
0.499	10.7377
0.491	9.896
0.483	9.2948
0.475	8.8662
0.467	8.0519
0.459	7.3019
0.451	6.6241
0.443	5.7349
0.435	4.7738
0.427	3.9171
0.419	3.1784
0.411	2.1129
0.403	1.4113
