Name: Brown fine sandy loam
Type: Soils
Class: Alfisol
Subclass: Haplustalf
Particle Size: see additional information
Sample No.: 87P3671
Owner: JHU
Origin: Luna Co., NM. via USDA Soil Conservation service.
Description: The parent material is eolian from acidic-ash material
Measurement: Directional (10 degree) hemispherical reflectance
X Units: Wavelength (micrometers)
Y Units: Reflectance (percent)
wavelength	value
14.0112	2.0861
13.7147	2.2908
13.4304	2.2935
13.1577	2.2485
12.8959	2.532
12.6443	2.1295
12.4023	1.8478
12.1694	2.058
11.945	2.866
11.7289	3.3809
11.5203	3.4995
11.3191	3.5096
11.1248	3.4462
10.937	3.3489
10.7555	3.3235
10.5799	3.404
10.4099	3.6847
10.2454	4.0819
10.0859	4.7483
9.9313	5.5095
9.7814	5.8694
9.636	6.8635
9.4948	7.5025
9.3577	8.7414
9.2245	8.9836
9.095	8.3496
8.9691	7.9081
8.8467	8.1764
8.7275	7.8469
8.6116	6.7862
8.4986	7.8203
8.3886	7.9359
8.2814	7.978
8.1769	7.3909
8.075	5.1621
7.9756	3.5548
7.8786	2.4305
7.784	1.9492
7.6916	1.7592
7.6014	1.6315
7.5133	1.628
7.4272	1.6836
7.343	1.7649
7.2607	1.8843
7.1803	2.0856
7.1016	2.2997
7.0246	2.4217
6.9493	2.6792
6.8755	2.854
6.8034	3.0935
6.7327	3.2916
6.6634	3.3799
6.5956	3.2577
6.5292	3.3122
6.464	3.8546
6.4002	3.879
6.3376	3.4579
6.2762	2.8811
6.216	2.4275
6.157	2.3331
6.099	2.5531
6.0421	2.7543
5.9863	3.0483
5.9315	3.3387
5.8777	4.3441
5.8249	5.4462
5.773	6.3476
5.722	7.1999
5.6719	7.4227
5.6227	6.4778
5.5744	6.4176
5.5268	7.2735
5.4801	8.4122
5.4341	8.6996
5.3889	6.8436
5.3445	5.8668
5.3008	6.303
5.2578	7.6498
5.2154	10.0999
5.1738	10.9749
5.1328	11.0538
5.0925	11.0595
5.0528	10.6639
5.0137	10.7452
4.9752	11.8642
4.9373	13.9326
4.9	16.8226
4.8632	20.1806
4.827	21.7166
4.7913	22.5371
4.7561	23.1828
4.7215	23.5784
4.6873	23.2646
4.6536	24.101
4.6205	25.1308
4.5877	25.8381
4.5555	26.2653
4.5237	26.0425
4.4923	25.2794
4.4614	25.3845
4.4309	26.2524
4.4008	27.1191
4.3711	28.2085
4.3418	29.0536
4.3129	29.4441
4.2844	29.4554
4.2563	29.9384
4.2285	30.204
4.2011	30.6542
4.174	30.962
4.1473	31.2067
4.1209	31.3991
4.0949	31.5873
4.0692	31.6838
4.0438	31.7049
4.0187	31.5646
3.994	31.4462
3.9695	31.4065
3.9453	31.3321
3.9214	31.1792
3.8979	30.8971
3.8746	30.5126
3.8515	30.1514
3.8288	29.7729
3.8063	29.3499
3.7841	28.8067
3.7621	28.2337
3.7404	27.6255
3.7189	27.108
3.6977	26.5943
3.6767	26.0674
3.656	25.5148
3.6355	24.915
3.6152	24.2712
3.5951	23.5826
3.5753	22.827
3.5557	21.9686
3.5363	21.0111
3.5171	19.5068
3.4981	18.1232
3.4793	17.8193
3.4607	17.1657
3.4423	16.2137
3.4241	14.8054
3.4061	14.4439
3.3883	14.6078
3.3707	14.4021
3.3533	14.4013
3.336	14.1187
3.3189	13.632
3.302	13.0495
3.2853	12.3741
3.2687	11.718
3.2523	11.1139
3.2361	10.5904
3.22	10.0523
3.204	9.5599
3.1883	9.0154
3.1727	8.5702
3.1572	8.0284
3.1419	7.5416
3.1268	7.1479
3.1117	6.7525
3.0969	6.4288
3.0821	6.1988
3.0675	5.9972
3.0531	5.8504
3.0388	5.6964
3.0246	5.5974
3.0105	5.4524
2.9966	5.2767
2.9828	5.1645
2.9692	5.0439
2.9556	4.9028
2.9422	4.8956
2.9289	4.8739
2.9157	4.937
2.9027	4.9514
2.8897	5.0484
2.8769	5.1603
2.8642	5.2406
2.8516	5.3462
2.8391	5.3732
2.8267	5.3854
2.8144	5.3622
2.8022	5.1523
2.7902	4.8702
2.7782	4.4475
2.7664	3.8812
2.7546	3.6943
2.7429	4.363
2.7314	5.2049
2.7199	6.5824
2.7085	7.0379
2.6973	9.5367
2.6861	20.548
2.675	27.2612
2.664	30.5787
2.6531	32.9595
2.6423	34.4168
2.6315	34.8472
2.6209	35.5646
2.6103	36.0746
2.5999	36.3769
2.5895	36.5297
2.5792	36.9224
2.569	37.0924
2.5588	37.4188
2.5487	37.6389
2.5388	37.727
2.5289	37.8964
2.519	38.0131
2.5093	38.1187
2.4996	38.2615
2.49	38.4131
2.4805	38.6369
2.471	39.0032
2.4616	39.2988
2.4523	39.6367
2.4431	39.8331
2.4339	40.3281
2.4248	40.7258
2.4157	41.1189
2.4068	41.3644
2.3979	41.5214
2.389	41.4873
2.3802	41.663
2.3715	41.9092
2.3629	42.0233
2.3543	41.9044
2.3458	42.1151
2.3373	42.3942
2.3289	42.5039
2.3206	42.7138
2.3123	42.8129
2.3041	42.9746
2.2959	43.0798
2.2878	43.2804
2.2798	43.3794
2.2718	43.4375
2.2638	43.4313
2.2559	43.4786
2.2481	43.449
2.2403	43.3598
2.2326	43.2483
2.225	43.1304
2.2173	42.7446
2.2098	41.7637
2.2023	41.9874
2.1948	42.5986
2.1874	42.9849
2.18	43.2595
2.1727	43.5785
2.1655	43.7026
2.1583	43.8828
2.1511	44.157
2.144	44.4259
2.1369	44.4708
2.1299	44.6276
2.1229	44.626
2.116	44.6607
2.1091	44.5877
2.1023	44.4745
2.0955	44.5336
2.0887	44.5779
2.082	44.4357
2.06	44.3805
2.028	44.3514
1.996	43.9264
1.964	41.9946
1.932	39.3925
1.9	39.6405
1.868	47.1613
1.836	48.198
1.804	47.7956
1.772	47.9759
1.74	47.9759
1.708	47.2945
1.676	47.4131
1.644	47.7785
1.612	47.0428
1.58	47.1919
1.548	46.7237
1.516	46.0539
1.484	45.5181
1.452	44.1375
1.42	43.8229
1.388	44.8155
1.356	45.9034
1.324	46.2595
1.292	46.0488
1.26	45.2705
1.228	44.8295
1.196	43.3555
1.164	42.6603
1.132	42.3777
1.1	42.0095
1.068	41.2475
1.036	40.2313
1.004	39.3602
0.972	37.7271
0.94	36.7859
0.908	35.623
0.876	34.4679
0.844	33.3406
0.812	32.077
0.795	31.0171
0.787	30.6045
0.779	30.3553
0.771	30.1165
0.763	29.5651
0.755	29.3515
0.747	28.7505
0.739	28.5082
0.731	28.0355
0.723	27.4893
0.715	27.0477
0.707	26.6347
0.699	25.9432
0.691	25.6961
0.683	25.3337
0.675	24.61
0.667	23.8185
0.659	23.6197
0.651	23.2314
0.643	22.8315
0.635	22.6278
0.627	22.0106
0.619	21.3244
0.611	21.2905
0.603	20.3714
0.595	19.8468
0.587	19.4928
0.579	18.6899
0.571	17.658
0.563	17.2789
0.555	16.4826
0.547	15.8332
0.539	14.8815
0.531	14.4699
0.523	13.8369
0.515	13.5488
0.507	12.9573
0.499	12.4713
0.491	12.0285
0.483	11.7043
0.475	11.1292
0.467	10.9977
0.459	10.3772
0.451	10.0844
0.443	9.3578
0.435	8.9369
0.427	8.418
0.419	7.7877
0.411	7.4049
0.403	7.061
