Name: Brown fine sandy loam
Type: Soils
Class: Alfisol
Subclass: Haplustalf
Particle Size: see additional information
Sample No.: 87P3665
Owner: JHU
Origin: from Los Alamos Co., NM. via USDA Soil Conservation service.
Description: Parent material is eolian from acidic ash-material over volcanic
Measurement: Directional (10 degree) hemispherical reflectance
X Units: Wavelength (micrometers)
Y Units: Reflectance (percent)
wavelength	value
14.0112	2.2197
13.7147	2.3787
13.4304	2.3664
13.1578	2.2414
12.8959	2.4116
12.6443	2.0559
12.4023	1.7932
12.1694	2.1345
11.945	2.9985
11.7289	3.5976
11.5203	3.6365
11.3191	3.6216
11.1248	3.5102
10.937	3.3291
10.7555	3.312
10.5799	3.3508
10.4099	3.5002
10.2454	3.8489
10.0859	4.3616
9.9313	5.0432
9.7814	5.3198
9.636	6.2082
9.4948	6.7485
9.3577	8.0959
9.2245	8.4663
9.095	7.8921
8.9691	7.4219
8.8467	7.7092
8.7275	7.4731
8.6116	6.5991
8.4986	7.6931
8.3886	7.873
8.2814	8.2283
8.1769	7.925
8.075	5.5818
7.9756	3.8374
7.8786	2.5955
7.784	2.052
7.6916	1.8538
7.6014	1.6904
7.5133	1.7012
7.4272	1.7405
7.343	1.8376
7.2607	2.0098
7.1803	2.2849
7.1016	2.5432
7.0246	2.73
6.9493	2.9658
6.8755	3.2156
6.8034	3.438
6.7327	3.5361
6.6634	3.6721
6.5956	3.6621
6.5292	3.7529
6.464	4.5198
6.4002	4.6531
6.3376	4.0557
6.2762	3.3259
6.216	2.7786
6.157	2.7827
6.099	3.0803
6.0421	3.3689
5.9863	3.6843
5.9315	3.9665
5.8777	5.0796
5.8249	6.2356
5.773	7.1084
5.722	7.8281
5.6719	7.7903
5.6227	6.6045
5.5744	6.4033
5.5268	7.2225
5.4801	8.4558
5.4341	8.7563
5.3889	6.7009
5.3445	5.5698
5.3008	6.0185
5.2578	7.4245
5.2154	10.0237
5.1738	10.9333
5.1328	10.9861
5.0925	10.935
5.0528	10.5368
5.0137	10.5718
4.9752	11.7644
4.9373	13.9467
4.9	17.0534
4.8632	20.7534
4.827	22.4509
4.7913	23.3547
4.7561	24.0641
4.7215	24.5283
4.6873	24.1594
4.6536	25.0297
4.6205	26.225
4.5877	26.9836
4.5555	27.412
4.5237	27.082
4.4923	26.1869
4.4614	26.2453
4.4309	27.1345
4.4008	28.1139
4.3711	29.3163
4.3418	30.2411
4.3129	30.6426
4.2844	30.6071
4.2563	31.1235
4.2285	31.4049
4.2011	31.9718
4.174	32.2863
4.1473	32.5644
4.1209	32.851
4.0949	33.0926
4.0692	33.2521
4.0438	33.2516
4.0187	33.1818
3.994	33.1379
3.9695	33.1054
3.9453	33.1789
3.9214	33.0348
3.8979	32.7963
3.8746	32.484
3.8515	32.1469
3.8288	31.8454
3.8063	31.4794
3.7841	31.0319
3.7621	30.5236
3.7404	30.0055
3.7189	29.5107
3.6977	29.0922
3.6767	28.6633
3.656	28.1432
3.6355	27.589
3.6152	26.9887
3.5951	26.3215
3.5753	25.5973
3.5557	24.8141
3.5363	23.9094
3.5171	22.5038
3.4981	21.4284
3.4793	20.9797
3.4607	20.2839
3.4423	19.395
3.4241	18.0336
3.4061	17.6843
3.3883	17.614
3.3707	17.3532
3.3533	17.1928
3.336	16.7946
3.3189	16.2028
3.302	15.4983
3.2853	14.8501
3.2687	14.1313
3.2523	13.5061
3.2361	12.9858
3.22	12.3989
3.2041	11.8569
3.1883	11.278
3.1727	10.6557
3.1572	10.0732
3.1419	9.584
3.1268	9.0652
3.1117	8.6858
3.0969	8.3132
3.0821	8.0222
3.0675	7.8188
3.0531	7.6233
3.0388	7.4997
3.0246	7.3491
3.0105	7.1487
2.9966	6.9377
2.9828	6.8056
2.9692	6.5793
2.9556	6.4763
2.9422	6.4411
2.9289	6.3916
2.9157	6.4089
2.9027	6.499
2.8897	6.5788
2.8769	6.6369
2.8642	6.7307
2.8516	6.7412
2.8391	6.8171
2.8267	6.768
2.8144	6.5864
2.8022	6.3369
2.7902	5.9079
2.7782	5.3513
2.7664	4.5361
2.7546	4.2595
2.7429	4.956
2.7314	5.7329
2.7199	7.1477
2.7085	7.4949
2.6973	10.0415
2.6861	21.0226
2.675	28.0993
2.664	31.548
2.6531	33.9369
2.6423	35.2685
2.6315	35.8136
2.6209	36.5048
2.6103	37.026
2.5999	37.3312
2.5895	37.539
2.5792	37.9
2.569	38.0949
2.5588	38.465
2.5487	38.6867
2.5388	38.8563
2.5289	39.0121
2.519	39.0946
2.5093	39.2038
2.4996	39.4645
2.49	39.5443
2.4805	39.7904
2.471	40.0023
2.4616	40.2825
2.4523	40.5777
2.4431	40.7946
2.4339	41.0597
2.4248	41.5241
2.4157	41.8861
2.4068	42.0805
2.3979	42.1132
2.389	42.1703
2.3802	42.3051
2.3715	42.5685
2.3629	42.6381
2.3543	42.6351
2.3458	42.8349
2.3373	43.1808
2.3289	43.2699
2.3206	43.3939
2.3123	43.5712
2.3041	43.7806
2.2959	43.942
2.2878	44.1205
2.2798	44.3109
2.2718	44.2457
2.2638	44.2974
2.2559	44.2504
2.2481	44.1334
2.2403	44.0407
2.2326	43.9772
2.225	43.7286
2.2173	43.3515
2.2098	42.2775
2.2023	42.5702
2.1948	43.1326
2.1874	43.5004
2.18	43.8677
2.1727	44.0634
2.1655	44.1469
2.1583	44.4081
2.1511	44.8495
2.144	44.9691
2.1369	45.223
2.1299	45.4254
2.1229	45.3085
2.116	45.247
2.1091	45.1981
2.1023	45.2684
2.0955	45.204
2.0887	45.3351
2.082	45.4254
2.06	45.6886
2.028	44.8861
1.996	44.0239
1.964	42.4217
1.932	41.239
1.9	39.7597
1.868	45.4037
1.836	46.3315
1.804	46.3509
1.772	45.9767
1.74	46.0434
1.708	45.9724
1.676	45.4864
1.644	45.2774
1.612	44.6802
1.58	45.0279
1.548	44.5418
1.516	44.3965
1.484	43.8066
1.452	43.3124
1.42	42.6983
1.388	42.4716
1.356	43.5201
1.324	43.5831
1.292	43.2015
1.26	42.7871
1.228	42.4539
1.196	42.2627
1.164	41.8658
1.132	41.5719
1.1	41.1681
1.068	40.649
1.036	39.8092
1.004	39.1824
0.972	38.4463
0.94	37.799
0.908	36.7844
0.876	36.2789
0.844	35.9792
0.812	35.2263
0.795	35.1775
0.787	34.8239
0.779	34.6538
0.771	34.1215
0.763	33.8765
0.755	33.4599
0.747	33.2408
0.739	32.5256
0.731	32.0922
0.723	31.7175
0.715	31.488
0.707	30.7977
0.699	30.4116
0.691	29.9491
0.683	29.3831
0.675	28.9281
0.667	28.7089
0.659	27.9367
0.651	27.6984
0.643	26.9441
0.635	26.8077
0.627	25.9929
0.619	25.4693
0.611	24.42
0.603	23.9648
0.595	23.407
0.587	22.3889
0.579	21.783
0.571	20.2782
0.563	19.127
0.555	17.1115
0.547	16.2327
0.539	15.1834
0.531	14.0488
0.523	13.4707
0.515	12.5931
0.507	12.0549
0.499	11.2612
0.491	10.6831
0.483	10.1865
0.475	9.8791
0.467	9.195
0.459	8.856
0.451	7.9024
0.443	7.2696
0.435	6.55
0.427	6.2163
0.419	5.6074
0.411	4.8108
0.403	4.105
