Name: Brown to dark brown gravelly fine sandy loam
Type: Soils
Class: Inceptisol
Subclass: Xerumbrept
Particle Size: see additional information
Sample No.: 87P325
Owner: JHU
Origin: Klickitat Co., Wa. via USDA Soil Conservation service.
Description: The parent material is volcanic ash from ejecta-ash
Measurement: Directional (10 degree) hemispherical reflectance
X Units: Wavelength (micrometers)
Y Units: Reflectance (percent)
wavelength	value
14.0112	1.3071
13.7147	1.3428
13.4304	1.5369
13.1577	1.5286
12.8959	1.5547
12.6443	1.4629
12.4023	1.4856
12.1694	1.7598
11.945	2.01
11.7289	2.2009
11.5203	2.3257
11.3191	2.4546
11.1248	2.4192
10.937	2.4177
10.7555	2.3757
10.5799	2.3804
10.4099	2.457
10.2454	2.563
10.0859	2.6086
9.9313	2.7124
9.7814	2.6672
9.636	2.6912
9.4948	2.6914
9.3577	2.7126
9.2245	2.8169
9.095	2.8826
8.9691	2.7934
8.8467	2.6318
8.7275	2.5967
8.6116	2.4817
8.4986	2.5286
8.3886	2.5388
8.2814	2.551
8.1769	2.4268
8.075	2.1255
7.9756	1.9902
7.8786	1.8801
7.784	1.8132
7.6916	1.812
7.6014	1.7852
7.5133	1.8091
7.4272	1.7864
7.343	1.7422
7.2607	1.7187
7.1803	1.7488
7.1016	1.7964
7.0246	1.833
6.9493	1.9363
6.8755	2.0161
6.8034	2.2078
6.7327	2.5498
6.6634	2.593
6.5956	2.4228
6.5292	2.4097
6.464	2.2356
6.4002	2.0754
6.3376	1.8728
6.2762	1.7964
6.216	1.6538
6.157	1.5696
6.099	1.5984
6.0421	1.5654
5.9863	1.7739
5.9315	1.9421
5.8777	2.2471
5.8249	2.6619
5.773	3.1974
5.722	3.8562
5.6719	4.6284
5.6227	5.4966
5.5744	6.3071
5.5268	7.2837
5.4801	7.8816
5.4341	8.3362
5.3889	8.3415
5.3445	8.2031
5.3008	8.5515
5.2578	9.0962
5.2154	9.5703
5.1738	9.9963
5.1328	10.1733
5.0925	10.3425
5.0528	10.4177
5.0137	10.5625
4.9752	10.8283
4.9373	11.1638
4.9	11.5678
4.8632	11.8781
4.827	12.041
4.7913	12.1787
4.7561	12.2871
4.7215	12.405
4.6873	12.5153
4.6536	12.6892
4.6205	12.8608
4.5877	13.0273
4.5555	13.1897
4.5237	13.2995
4.4923	13.4138
4.4614	13.5074
4.4309	13.5923
4.4008	13.6081
4.3711	13.6909
4.3418	13.7251
4.3129	13.6779
4.2844	13.5141
4.2563	13.6006
4.2285	13.3918
4.2011	13.4621
4.174	13.3852
4.1473	13.2685
4.1209	13.1347
4.0949	13.0293
4.0692	12.8801
4.0438	12.7238
4.0187	12.6001
3.994	12.5151
3.9695	12.4304
3.9453	12.4025
3.9214	12.2361
3.8979	12.1548
3.8746	12.0368
3.8515	11.8796
3.8288	11.7395
3.8063	11.5302
3.7841	11.2678
3.7621	11.0603
3.7404	10.7556
3.7189	10.4743
3.6977	10.1875
3.6767	9.8681
3.656	9.5
3.6355	9.1848
3.6152	8.8845
3.5951	8.55
3.5753	8.1804
3.5557	7.8562
3.5363	7.4099
3.5171	6.7605
3.4981	6.2307
3.4793	6.1028
3.4607	5.8906
3.4423	5.4997
3.4241	4.947
3.4061	4.824
3.3883	4.8811
3.3707	4.8716
3.3533	4.781
3.336	4.7258
3.3189	4.5906
3.302	4.4895
3.2853	4.2734
3.2687	4.1357
3.2523	4.0354
3.2361	3.813
3.22	3.7224
3.204	3.5664
3.1883	3.4912
3.1727	3.3464
3.1572	3.2651
3.1419	3.1694
3.1268	2.9897
3.1117	2.9438
3.0969	2.8467
3.0821	2.7656
3.0675	2.7104
3.0531	2.613
3.0388	2.6538
3.0246	2.5361
3.0105	2.5435
2.9966	2.4661
2.9828	2.4221
2.9692	2.4116
2.9556	2.3835
2.9422	2.3486
2.9289	2.4028
2.9157	2.3618
2.9027	2.3489
2.8897	2.416
2.8769	2.4541
2.8642	2.5146
2.8516	2.5122
2.8391	2.6848
2.8267	2.6841
2.8144	2.9619
2.8022	2.9774
2.7902	3.227
2.7782	3.5505
2.7664	3.7058
2.7546	4.0478
2.7429	4.8642
2.7314	6.208
2.7199	7.3928
2.7085	9.5407
2.6973	12.3288
2.6861	16.2465
2.675	19.9335
2.664	22.2861
2.6531	24.4124
2.6423	25.6226
2.6315	25.7255
2.6209	26.0905
2.6103	26.9345
2.5999	27.2389
2.5895	27.2841
2.5792	27.5759
2.569	27.2985
2.5588	27.6283
2.5487	27.6906
2.5388	27.8281
2.5289	27.7648
2.519	27.8613
2.5093	28.0275
2.4996	28.2172
2.49	28.3393
2.4805	28.5199
2.471	28.7756
2.4616	29.0051
2.4523	29.3361
2.4431	29.6095
2.4339	29.9306
2.4248	30.071
2.4157	30.4001
2.4068	30.5221
2.3979	30.6876
2.389	30.8173
2.3802	31.0424
2.3715	31.11
2.3629	31.2008
2.3543	31.1735
2.3458	31.3095
2.3373	31.3591
2.3289	31.3923
2.3206	31.5025
2.3123	31.4152
2.3041	31.4928
2.2959	31.6581
2.2878	31.7707
2.2798	31.8747
2.2718	31.9465
2.2638	32.0474
2.2559	32.1083
2.2481	32.1513
2.2403	32.3359
2.2326	32.3371
2.225	32.2611
2.2173	32.184
2.2098	32.0926
2.2023	32.0677
2.1948	32.1105
2.1874	32.1827
2.18	32.2201
2.1727	32.3974
2.1655	32.4098
2.1583	32.3632
2.1511	32.3883
2.144	32.5492
2.1369	32.6418
2.1299	32.5639
2.1229	32.5775
2.116	32.727
2.1091	32.6464
2.1023	32.517
2.0955	32.7143
2.0887	32.4338
2.082	32.5775
2.06	32.0701
2.028	32.0744
1.996	31.4486
1.964	29.8694
1.932	28.5972
1.9	29.4729
1.868	34.0256
1.836	34.6971
1.804	34.502
1.772	34.5332
1.74	34.7431
1.708	34.3092
1.676	34.3197
1.644	34.5407
1.612	34.1231
1.58	34.1004
1.548	33.7225
1.516	33.0308
1.484	32.6536
1.452	31.9146
1.42	32.0846
1.388	32.1704
1.356	32.5982
1.324	32.4356
1.292	31.7111
1.26	31.2046
1.228	30.2522
1.196	30.0033
1.164	29.0822
1.132	28.6195
1.1	28.1961
1.068	27.5301
1.036	26.5453
1.004	25.8957
0.972	25.1506
0.94	24.2974
0.908	23.686
0.876	22.8088
0.844	22.3604
0.812	21.4763
0.795	20.4844
0.787	20.4095
0.779	20.1415
0.771	19.9026
0.763	19.5763
0.755	19.3256
0.747	18.9651
0.739	18.5658
0.731	18.4598
0.723	18.017
0.715	17.5622
0.707	17.4628
0.699	16.9098
0.691	16.52
0.683	16.4898
0.675	15.7114
0.667	15.3922
0.659	15.2648
0.651	14.7551
0.643	14.363
0.635	14.5016
0.627	14.0066
0.619	13.4639
0.611	12.9394
0.603	12.2635
0.595	11.9494
0.587	11.9964
0.579	11.5894
0.571	10.9549
0.563	10.5367
0.555	10.0857
0.547	9.6141
0.539	9.1478
0.531	8.8725
0.523	8.3567
0.515	8.303
0.507	7.6028
0.499	7.3519
0.491	7.0458
0.483	6.7024
0.475	6.1134
0.467	6.1109
0.459	5.6209
0.451	5.312
0.443	4.9568
0.435	4.5048
0.427	3.9959
0.419	3.6039
0.411	3.2414
0.403	2.8861
