Name: Brown to dark brown gravelly loam
Type: Soils
Class: Alfisol
Subclass: Haploxeralf
Particle Size: see additional information
Sample No.: 87P313
Owner: JHU
Origin: Klickitat Co., Wa. via USDA Soil Conservation service.
Description: Brown to dark brown gravelly loam (medial-skeletal,
Measurement: Directional (10 degree) hemispherical reflectance
X Units: Wavelength (micrometers)
Y Units: Reflectance (percent)
wavelength	value
14.0112	1.5945
13.7147	1.7036
13.4304	1.7444
13.1577	1.7935
12.8959	1.7842
12.6443	1.7449
12.4023	1.8826
12.1694	2.2849
11.945	2.6384
11.7289	2.8289
11.5203	2.9514
11.3191	2.946
11.1248	2.8801
10.937	2.7722
10.7555	2.6374
10.5799	2.6179
10.4099	2.5727
10.2454	2.5691
10.0859	2.5383
9.9313	2.4971
9.7814	2.407
9.636	2.3198
9.4948	2.2993
9.3577	2.4018
9.2245	2.6033
9.095	2.5903
8.9691	2.5151
8.8467	2.4434
8.7275	2.3557
8.6116	2.2554
8.4986	2.3674
8.3886	2.3647
8.2814	2.3552
8.1769	2.2256
8.075	2.0537
7.9756	1.9258
7.8786	1.7922
7.784	1.7163
7.6916	1.7822
7.6014	1.8494
7.5133	1.873
7.4272	1.9531
7.343	1.9421
7.2607	1.9451
7.1803	2.0193
7.1016	2.092
7.0246	2.0825
6.9493	2.2056
6.8755	2.2646
6.8034	2.4346
6.7327	2.8455
6.6634	2.812
6.5956	2.6633
6.5292	2.8323
6.464	2.7952
6.4002	2.6619
6.3376	2.4653
6.2762	2.2546
6.216	2.1267
6.157	2.0227
6.099	2.0483
6.0421	2.136
5.9863	2.3379
5.9315	2.6284
5.8777	3.008
5.8249	3.4861
5.773	4.0088
5.722	4.7256
5.6719	5.6057
5.6227	6.5559
5.5744	7.7612
5.5268	9.0903
5.4801	10.0591
5.4341	10.5891
5.3889	10.6465
5.3445	10.584
5.3008	10.916
5.2578	11.4345
5.2154	12.0381
5.1738	12.3684
5.1328	12.4875
5.0925	12.5739
5.0528	12.6303
5.0137	12.7282
4.9752	12.8872
4.9373	13.1484
4.9	13.4482
4.8632	13.6889
4.827	13.8874
4.7913	14.0564
4.7561	14.2155
4.7215	14.3374
4.6873	14.4594
4.6536	14.5986
4.6205	14.7797
4.5877	14.9607
4.5555	15.1521
4.5237	15.2712
4.4923	15.3498
4.4614	15.4397
4.4309	15.5173
4.4008	15.5534
4.3711	15.5927
4.3418	15.571
4.3129	15.6003
4.2844	15.5207
4.2563	15.4853
4.2285	15.4067
4.2011	15.331
4.174	15.2338
4.1473	15.0649
4.1209	14.8752
4.0949	14.6836
4.0692	14.5036
4.0438	14.3344
4.0187	14.1853
3.994	14.0053
3.9695	13.8574
3.9453	13.6992
3.9214	13.5654
3.8979	13.4419
3.8746	13.2844
3.8515	13.0793
3.8288	12.9172
3.8063	12.7216
3.7841	12.5227
3.7621	12.3205
3.7404	12.1438
3.7189	11.9133
3.6977	11.6469
3.6767	11.3872
3.656	11.1281
3.6355	10.9048
3.6152	10.6867
3.5951	10.403
3.5753	10.0803
3.5557	9.7097
3.5363	9.1775
3.5171	8.3498
3.4981	7.7102
3.4793	7.5996
3.4607	7.3481
3.4423	6.9477
3.4241	6.3674
3.4061	6.1838
3.3883	6.4387
3.3707	6.5159
3.3533	6.7021
3.336	6.8044
3.3189	6.6113
3.302	6.5808
3.2853	6.3769
3.2687	6.1304
3.2523	5.8948
3.2361	5.7136
3.22	5.5566
3.204	5.375
3.1883	5.1968
3.1727	5.0171
3.1572	4.833
3.1419	4.7114
3.1268	4.4827
3.1117	4.3528
3.0969	4.2268
3.0821	4.1164
3.0675	3.9814
3.0531	3.9241
3.0388	3.8169
3.0246	3.7986
3.0105	3.7163
2.9966	3.6233
2.9828	3.5557
2.9692	3.5222
2.9556	3.4409
2.9422	3.4321
2.9289	3.4199
2.9157	3.4512
2.9027	3.4426
2.8897	3.4497
2.8769	3.5427
2.8642	3.6357
2.8516	3.7539
2.8391	3.8452
2.8267	4.0183
2.8144	4.1697
2.8022	4.4336
2.7902	4.6904
2.7782	5.0444
2.7664	5.3857
2.7546	5.8491
2.7429	6.8723
2.7314	8.5644
2.7199	10.937
2.7085	13.4807
2.6973	16.5473
2.6861	20.301
2.675	22.5998
2.664	24.0119
2.6531	25.0231
2.6423	25.6408
2.6315	25.947
2.6209	26.3207
2.6103	26.5568
2.5999	26.6782
2.5895	26.621
2.5792	26.5978
2.569	26.5605
2.5588	26.4636
2.5487	26.2856
2.5388	26.1999
2.5289	26.1716
2.519	26.1401
2.5093	26.1677
2.4996	26.141
2.49	26.405
2.4805	26.6313
2.471	27.0358
2.4616	27.3984
2.4523	27.8869
2.4431	28.1625
2.4339	28.5641
2.4248	28.9032
2.4157	29.2526
2.4068	29.4445
2.3979	29.6054
2.389	29.6762
2.3802	29.768
2.3715	29.8739
2.3629	30.0571
2.3543	30.1152
2.3458	30.0129
2.3373	30.0993
2.3289	30.1586
2.3206	30.3381
2.3123	30.3212
2.3041	30.332
2.2959	30.3371
2.2878	30.2839
2.2798	30.2179
2.2718	30.2116
2.2638	30.4076
2.2559	30.8315
2.2481	31.1811
2.2403	31.558
2.2326	31.7995
2.225	31.9228
2.2173	31.915
2.2098	31.9328
2.2023	31.7685
2.1948	31.9181
2.1874	31.686
2.18	31.7973
2.1727	31.8075
2.1655	31.506
2.1583	31.506
2.1511	31.3361
2.144	31.2438
2.1369	31.2853
2.1299	31.3273
2.1229	31.4342
2.116	31.557
2.1091	31.7382
2.1023	31.6557
2.0955	31.716
2.0887	31.7013
2.082	31.686
2.06	32.309
2.028	32.2893
1.996	31.9437
1.964	29.8333
1.932	28.4353
1.9	29.1493
1.868	34.5297
1.836	35.6905
1.804	35.3674
1.772	35.1806
1.74	35.0074
1.708	34.7643
1.676	34.1912
1.644	34.0849
1.612	34.186
1.58	33.7824
1.548	33.1623
1.516	32.9127
1.484	31.7078
1.452	31.2981
1.42	31.3241
1.388	32.1386
1.356	32.1444
1.324	31.8508
1.292	31.5539
1.26	30.6847
1.228	30.2567
1.196	29.4717
1.164	28.701
1.132	28.1428
1.1	27.1447
1.068	26.1448
1.036	25.5484
1.004	24.532
0.972	23.6862
0.94	22.212
0.908	21.2935
0.876	20.7007
0.844	19.8735
0.812	19.0736
0.795	17.6403
0.787	17.4564
0.779	16.7769
0.771	16.4498
0.763	15.9825
0.755	15.6288
0.747	15.2547
0.739	14.9688
0.731	14.5115
0.723	14.1677
0.715	13.858
0.707	13.3623
0.699	13.0461
0.691	12.53
0.683	12.1363
0.675	11.7346
0.667	11.5015
0.659	11.1071
0.651	10.7585
0.643	10.5184
0.635	10.161
0.627	9.7961
0.619	9.5963
0.611	9.2457
0.603	8.8256
0.595	8.4132
0.587	8.1384
0.579	7.7499
0.571	7.3633
0.563	6.9759
0.555	6.225
0.547	5.7108
0.539	5.7821
0.531	5.2345
0.523	5.1633
0.515	4.8013
0.507	4.0959
0.499	4.1407
0.491	3.8211
0.483	3.3066
0.475	3.306
0.467	2.8512
0.459	2.7234
0.451	2.2618
0.443	2.0987
0.435	1.8997
0.427	1.36
0.419	1.0189
0.411	0.4882
0.403	0.424
