Name: Brown loamy fine sand
Type: Soils
Class: Alfisol
Subclass: Haplustalf
Sample No.: 87P3468
Owner: JHU
Origin: Edwards Co., Ks. via USDA Soil Conservation service.
Description: The parent material is eolian sand from upland slope in
Measurement: Directional (10 degree) hemispherical reflectance
X Units: Wavelength (micrometers)
Y Units: Reflectance (percent)
wavelength	value
14.0112	2.1604
13.7147	2.3115
13.4304	2.3503
13.1577	2.6196
12.8959	3.4487
12.6443	2.9436
12.4023	2.4673
12.1694	1.8037
11.945	2.2815
11.7289	2.616
11.5203	2.8769
11.3191	3.052
11.1248	3.2319
10.937	3.3809
10.7555	3.4785
10.5799	3.696
10.4099	4.1179
10.2454	4.8003
10.0859	5.699
9.9313	6.647
9.7814	7.23
9.636	8.2085
9.4948	9.2136
9.3577	11.1692
9.2245	11.8344
9.095	11.2688
8.9691	10.7827
8.8467	11.0835
8.7275	10.7209
8.6116	9.0875
8.4986	11.0849
8.3886	11.3882
8.2814	11.3488
8.1769	10.3738
8.075	6.802
7.9756	4.1628
7.8786	2.5056
7.784	1.8608
7.6916	1.5195
7.6014	1.2793
7.5133	1.1741
7.4272	1.1174
7.343	1.0989
7.2607	1.1103
7.1803	1.1406
7.1016	1.1819
7.0246	1.1787
6.9493	1.2537
6.8755	1.3066
6.8034	1.3811
6.7327	1.5081
6.6634	1.522
6.5956	1.4697
6.5292	1.4841
6.464	1.5603
6.4002	1.5686
6.3376	1.4674
6.2762	1.387
6.216	1.3215
6.157	1.2937
6.099	1.3457
6.0421	1.3376
5.9863	1.4106
5.9315	1.488
5.8777	1.7153
5.8249	2.0271
5.773	2.3147
5.722	2.6435
5.6719	2.8503
5.6227	2.7932
5.5744	2.9819
5.5268	3.3724
5.4801	3.7974
5.4341	3.9697
5.3889	3.626
5.3445	3.4871
5.3008	3.6677
5.2578	3.9897
5.2154	4.6304
5.1738	4.9602
5.1328	5.105
5.0925	5.2815
5.0528	5.2822
5.0137	5.4176
4.9752	5.792
4.9373	6.3738
4.9	7.5967
4.8632	9.9062
4.827	11.3139
4.7913	12.1396
4.7561	12.8524
4.7215	13.2451
4.6873	12.4436
4.6536	13.4673
4.6205	15.0007
4.5877	15.9113
4.5555	16.2329
4.5237	15.384
4.4923	13.9287
4.4614	13.9724
4.4309	15.1137
4.4008	16.3884
4.3711	18.1611
4.3418	19.6198
4.3129	20.0581
4.2844	19.9604
4.2563	20.6345
4.2285	21.1447
4.2011	21.582
4.174	22.0775
4.1473	22.4982
4.1209	22.8901
4.0949	23.309
4.0692	23.5474
4.0438	23.4504
4.0187	23.2238
3.994	23.0729
3.9695	23.134
3.9453	23.2805
3.9214	23.2556
3.8979	22.9216
3.8746	22.497
3.8515	22.123
3.8288	21.892
3.8063	21.6232
3.7841	21.186
3.7621	20.6113
3.7404	20.1171
3.7189	19.7888
3.6977	19.5993
3.6767	19.3571
3.656	19.0449
3.6355	18.5844
3.6152	18.1262
3.5951	17.6013
3.5753	17.0307
3.5557	16.3901
3.5363	15.611
3.5171	14.2605
3.4981	13.248
3.4793	12.9472
3.4607	12.4294
3.4423	11.7351
3.4241	10.4878
3.4061	10.4155
3.3883	10.5207
3.3707	10.4619
3.3533	10.5737
3.336	10.4992
3.3189	10.1804
3.302	9.6682
3.2853	9.1667
3.2687	8.685
3.2523	8.2274
3.2361	7.8122
3.22	7.3972
3.204	7.0408
3.1883	6.6687
3.1727	6.2544
3.1572	5.8965
3.1419	5.5227
3.1268	5.2585
3.1117	4.9702
3.0969	4.7807
3.0821	4.5986
3.0675	4.4643
3.0531	4.3235
3.0388	4.2073
3.0246	4.1482
3.0105	4.0559
2.9966	3.9668
2.9828	3.9448
2.9692	3.78
2.9556	3.7607
2.9422	3.7527
2.9289	3.7832
2.9157	3.8147
2.9027	3.8528
2.8897	3.9358
2.8769	4.0952
2.8642	4.1736
2.8516	4.3298
2.8391	4.4089
2.8267	4.438
2.8144	4.487
2.8022	4.3313
2.7902	4.3245
2.7782	4.2038
2.7664	3.9065
2.7546	4.0193
2.7429	4.6587
2.7314	5.8762
2.7199	7.8706
2.7085	8.6321
2.6973	11.9358
2.6861	21.9406
2.675	27.5597
2.664	30.509
2.6531	32.5209
2.6423	33.6652
2.6315	34.1068
2.6209	34.6667
2.6103	35.1269
2.5999	35.4323
2.5895	35.5553
2.5792	35.8686
2.569	35.9025
2.5588	35.9804
2.5487	36.0677
2.5388	36.0915
2.5289	36.1874
2.519	36.0898
2.5093	36.0399
2.4996	36.2406
2.49	36.4508
2.4805	36.641
2.471	37.0001
2.4616	37.2074
2.4523	37.5634
2.4431	37.9223
2.4339	38.4174
2.4248	38.9
2.4157	39.289
2.4068	39.6867
2.3979	39.8588
2.389	39.914
2.3802	39.9843
2.3715	40.2887
2.3629	40.3319
2.3543	40.2076
2.3458	40.4308
2.3373	40.6449
2.3289	41.0874
2.3206	41.2421
2.3123	41.3471
2.3041	41.5294
2.2959	41.8803
2.2878	42.0841
2.2798	42.2821
2.2718	42.3575
2.2638	42.3888
2.2559	42.4069
2.2481	42.4498
2.2403	42.4501
2.2326	42.6442
2.225	42.4545
2.2173	41.9989
2.2098	41.1935
2.2023	41.392
2.1948	41.9115
2.1874	42.3571
2.18	42.7809
2.1727	43.1449
2.1655	43.1647
2.1583	43.6552
2.1511	43.7699
2.144	44.018
2.1369	44.0529
2.1299	44.0829
2.1229	44.0953
2.116	44.1
2.1091	44.0856
2.1023	44.1801
2.0955	44.1312
2.0887	44.2627
2.082	44.2191
2.06	44.2729
2.028	43.6602
1.996	42.855
1.964	40.497
1.932	39.091
1.9	38.6284
1.868	45.7463
1.836	47.2173
1.804	47.0412
1.772	46.6628
1.74	46.6239
1.708	46.4484
1.676	46.2809
1.644	45.9593
1.612	45.3609
1.58	45.4832
1.548	45.3254
1.516	44.3032
1.484	43.3674
1.452	42.977
1.42	42.3606
1.388	42.4319
1.356	43.687
1.324	43.5625
1.292	43.1608
1.26	42.2596
1.228	42.0266
1.196	40.5998
1.164	39.9997
1.132	39.3976
1.1	38.4929
1.068	38.068
1.036	37.3475
1.004	36.4359
0.972	35.2244
0.94	34.5223
0.908	33.2809
0.876	32.2282
0.844	31.3113
0.812	30.3239
0.795	29.4414
0.787	28.9515
0.779	28.5359
0.771	28.0133
0.763	27.5864
0.755	27.1996
0.747	26.8271
0.739	26.3145
0.731	25.5448
0.723	25.362
0.715	24.8783
0.707	24.2972
0.699	23.6294
0.691	23.0086
0.683	22.332
0.675	22.2157
0.667	21.8186
0.659	21.0465
0.651	20.8137
0.643	20.3112
0.635	19.749
0.627	19.5047
0.619	18.7984
0.611	18.199
0.603	18.0546
0.595	17.308
0.587	16.9675
0.579	16.8332
0.571	15.8251
0.563	15.2891
0.555	14.352
0.547	13.8869
0.539	13.4524
0.531	12.3269
0.523	12.2548
0.515	11.7498
0.507	11.0883
0.499	10.5483
0.491	10.1051
0.483	9.7132
0.475	9.3967
0.467	8.8428
0.459	8.9164
0.451	8.335
0.443	7.6995
0.435	7.093
0.427	6.6208
0.419	6.2729
0.411	5.4832
0.403	4.9011
