Name: Dark reddish brown, organic-rich, silty loam
Type: Soils
Class: Spodosol
Subclass: Cryohumod
Particle Size: see additional information
Sample No.: 87P4264
Owner: JHU
Origin: Kenai-Cook Inlet Division, Ak.
Description: Parent material: volcanic ash from acidic-ash material over
Measurement: Directional (10 degree) hemispherical reflectance
X Units: Wavelength (micrometers)
Y Units: Reflectance (percent)
wavelength	value
14.0112	2.1746
13.7147	2.1951
13.4304	2.2518
13.1577	2.347
12.8959	2.3248
12.6443	2.2145
12.4023	2.283
12.1694	2.4983
11.945	2.8971
11.7289	3.3627
11.5203	3.463
11.3191	3.3684
11.1248	3.1832
10.937	3.0912
10.7555	3.0344
10.5799	2.9138
10.4099	2.8533
10.2454	2.8236
10.0859	2.7856
9.9313	2.6658
9.7814	2.4709
9.636	2.3231
9.4948	2.2767
9.3577	2.3274
9.2245	2.2667
9.095	2.275
8.9691	2.1317
8.8467	1.9255
8.7275	1.8343
8.6116	1.7374
8.4986	1.7401
8.3886	1.7661
8.2814	1.7281
8.1769	1.6681
8.075	1.5881
7.9756	1.5549
7.8786	1.5413
7.784	1.6066
7.6916	1.7259
7.6014	1.7571
7.5133	1.7805
7.4272	1.8135
7.343	1.8192
7.2607	1.7686
7.1803	1.8478
7.1016	1.9228
7.0246	1.9241
6.9493	2.0253
6.8755	2.0552
6.8034	2.271
6.7327	2.9203
6.6634	2.777
6.5956	2.5538
6.5292	2.5846
6.464	2.4834
6.4002	2.4831
6.3376	2.4468
6.2762	2.2341
6.216	2.103
6.157	1.9276
6.099	1.8127
6.0421	1.8209
5.9863	1.9592
5.9315	2.1317
5.8777	2.2964
5.8249	2.4126
5.773	2.5452
5.722	3.2056
5.6719	4.5432
5.6227	5.9117
5.5744	7.8179
5.5268	10.4234
5.4801	12.5186
5.4341	13.5655
5.3889	13.9898
5.3445	14.1517
5.3008	14.5686
5.2578	15.0738
5.2154	15.5234
5.1738	15.8389
5.1328	16.0058
5.0925	16.1627
5.0528	16.3585
5.0137	16.5938
4.9752	16.8463
4.9373	17.1257
4.9	17.431
4.8632	17.7251
4.827	17.9483
4.7913	18.1347
4.7561	18.2666
4.7215	18.3797
4.6873	18.4541
4.6536	18.5428
4.6205	18.6895
4.5877	18.8411
4.5555	18.9204
4.5237	18.9919
4.4923	18.961
4.4614	18.9602
4.4309	18.874
4.4008	18.7735
4.3711	18.6245
4.3418	18.4115
4.3129	18.111
4.2844	17.7293
4.2563	17.5535
4.2285	17.099
4.2011	16.9532
4.174	16.6154
4.1473	16.1883
4.1209	15.7694
4.0949	15.3671
4.0692	14.931
4.0438	14.5461
4.0187	14.1775
3.994	13.8479
3.9695	13.5067
3.9453	13.2672
3.9214	13.0132
3.8979	12.7866
3.8746	12.5461
3.8515	12.2974
3.8288	12.0412
3.8063	11.7907
3.7841	11.544
3.7621	11.3635
3.7404	11.1864
3.7189	10.971
3.6977	10.7716
3.6767	10.4748
3.656	10.1827
3.6355	9.9303
3.6152	9.6489
3.5951	9.3351
3.5753	8.9867
3.5557	8.5343
3.5363	7.9125
3.5171	6.5891
3.4981	5.718
3.4793	5.844
3.4607	5.567
3.4423	5.0726
3.4241	4.1063
3.4061	4.3673
3.3883	4.7966
3.3707	5.1583
3.3533	5.6326
3.336	5.9274
3.3189	5.9802
3.302	5.9204
3.2853	5.7248
3.2687	5.5174
3.2523	5.2859
3.2361	5.1648
3.22	5.0454
3.204	4.8739
3.1883	4.7303
3.1727	4.5707
3.1572	4.3755
3.1419	4.1487
3.1268	3.9999
3.1117	3.8287
3.0969	3.7003
3.0821	3.5378
3.0675	3.4032
3.0531	3.3086
3.0388	3.2046
3.0246	3.1258
3.0105	3.0923
2.9966	3.0444
2.9828	3.0026
2.9692	3.021
2.9556	2.9543
2.9422	2.9853
2.9289	3.0366
2.9157	3.0287
2.9027	3.0808
2.8897	3.1378
2.8769	3.2237
2.8642	3.3843
2.8516	3.5742
2.8391	3.7634
2.8267	4.0071
2.8144	4.3685
2.8022	4.8086
2.7902	5.4479
2.7782	6.1276
2.7664	7.0896
2.7546	8.2651
2.7429	10.282
2.7314	13.4934
2.7199	17.9387
2.7085	23.1833
2.6973	27.6203
2.6861	31.3238
2.675	32.7305
2.664	34.302
2.6531	35.8122
2.6423	36.5218
2.6315	36.4604
2.6209	36.7986
2.6103	37.1151
2.5999	37.1018
2.5895	36.9051
2.5792	36.7969
2.569	36.6082
2.5588	36.2268
2.5487	35.9148
2.5388	35.6499
2.5289	35.4605
2.519	35.2708
2.5093	35.1983
2.4996	35.1894
2.49	35.3179
2.4805	35.6203
2.471	35.9774
2.4616	36.4859
2.4523	37.2133
2.4431	37.7826
2.4339	38.3809
2.4248	38.9083
2.4157	39.2565
2.4068	39.5595
2.3979	39.6981
2.389	39.6989
2.3802	39.8537
2.3715	39.875
2.3629	39.7968
2.3543	39.4638
2.3458	39.3085
2.3373	39.5924
2.3289	39.7938
2.3206	39.631
2.3123	38.7704
2.3041	38.9783
2.2959	39.403
2.2878	39.7738
2.2798	40.194
2.2718	40.4044
2.2638	40.8344
2.2559	41.3873
2.2481	42.1749
2.2403	42.7616
2.2326	43.1516
2.225	43.3887
2.2173	43.4641
2.2098	43.3403
2.2023	43.2755
2.1948	43.1519
2.1874	43.1713
2.18	43.0394
2.1727	42.9901
2.1655	42.8363
2.1583	42.7172
2.1511	42.6171
2.144	42.6886
2.1369	42.7252
2.1299	42.7903
2.1229	42.9909
2.116	42.9887
2.1091	42.9767
2.1023	43.0158
2.0955	42.9224
2.0887	43.2146
2.082	43.2117
2.06	43.3802
2.028	43.4598
1.996	43.0994
1.964	40.3961
1.932	37.9732
1.9	39.3021
1.868	47.0085
1.836	48.2665
1.804	48.051
1.772	47.7659
1.74	47.6241
1.708	47.3478
1.676	47.4964
1.644	47.7994
1.612	46.9833
1.58	47.2971
1.548	46.8269
1.516	45.8875
1.484	45.1419
1.452	44.4141
1.42	44.5637
1.388	45.1491
1.356	45.8178
1.324	44.9727
1.292	44.5345
1.26	43.3478
1.228	43.3212
1.196	42.2584
1.164	41.6788
1.132	40.665
1.1	40.0777
1.068	39.4027
1.036	38.3336
1.004	37.3788
0.972	36.2832
0.94	35.4209
0.908	34.1884
0.876	32.4852
0.844	31.1021
0.812	29.0168
0.795	27.1759
0.787	26.5507
0.779	26.135
0.771	25.376
0.763	24.6472
0.755	24.0427
0.747	23.394
0.739	22.5872
0.731	21.9778
0.723	21.2401
0.715	20.5017
0.707	19.7787
0.699	18.9508
0.691	18.2833
0.683	17.6247
0.675	16.8203
0.667	16.2358
0.659	15.4637
0.651	14.9803
0.643	14.5997
0.635	13.9902
0.627	13.5564
0.619	13.1689
0.611	12.7776
0.603	12.5345
0.595	12.0668
0.587	12.0109
0.579	11.6589
0.571	11.3888
0.563	11.3232
0.555	10.7019
0.547	10.5699
0.539	10.3401
0.531	9.8746
0.523	9.6604
0.515	9.5086
0.507	9.2461
0.499	9.0837
0.491	8.7849
0.483	8.7188
0.475	8.6401
0.467	8.2164
0.459	7.9703
0.451	7.463
0.443	7.3368
0.435	6.7943
0.427	6.8281
0.419	6.5977
0.411	6.0988
0.403	5.8826
