Name: Brown to dark brown sand
Type: Soils
Class: Entisol
Subclass: Quartzipsamment
Particle Size: see additional information
Sample No.: 87P706
Owner: JHU
Origin: Dorchester Co., Md. via USDA Soil Conservation service.
Description: The parent material is alluvium from mixed material from
Measurement: Directional (10 degree) hemispherical reflectance
X Units: Wavelength (micrometers)
Y Units: Reflectance (percent)
wavelength	value
14.0112	2.3713
13.7147	2.7351
13.4304	2.9241
13.1577	3.4121
12.8959	4.7131
12.6443	3.6108
12.4023	2.9538
12.1694	1.3613
11.945	2.0063
11.7289	2.4436
11.5203	2.7815
11.3191	3.0132
11.1248	3.2212
10.937	3.2834
10.7555	3.5107
10.5799	3.7773
10.4099	4.052
10.2454	4.2998
10.0859	4.6152
9.9313	5.1426
9.7814	5.6477
9.636	6.6291
9.4948	8.1428
9.3577	12.9934
9.2245	15.0124
9.095	14.9194
8.9691	14.7285
8.8467	15.1242
8.7275	14.4309
8.6116	11.0652
8.4986	15.6037
8.3886	16.5966
8.2814	18.2968
8.1769	18.747
8.075	12.6035
7.9756	7.7117
7.8786	4.2021
7.784	2.738
7.6916	1.969
7.6014	1.4087
7.5133	1.1301
7.4272	0.9707
7.343	0.8621
7.2607	0.842
7.1803	0.8589
7.1016	0.9053
7.0246	0.9182
6.9493	0.9573
6.8755	0.9785
6.8034	0.9707
6.7327	1.0305
6.6634	1.1367
6.5956	1.1641
6.5292	1.1676
6.464	1.2666
6.4002	1.2666
6.3376	1.2085
6.2762	1.1736
6.216	1.1355
6.157	1.1482
6.099	1.2058
6.0421	1.1602
5.9863	1.22
5.9315	1.3052
5.8777	1.3752
5.8249	1.5684
5.773	1.8005
5.722	2.0977
5.6719	2.0857
5.6227	1.9268
5.5744	1.988
5.5268	2.1814
5.4801	2.3752
5.4341	2.4734
5.3889	2.2681
5.3445	2.1421
5.3008	2.2163
5.2578	2.3813
5.2154	2.6787
5.1738	2.7954
5.1328	2.8594
5.0925	2.8428
5.0528	2.8518
5.0137	2.8747
4.9752	2.9939
4.9373	3.3618
4.9	4.4624
4.8632	7.4431
4.827	9.6965
4.7913	11.3403
4.7561	12.5901
4.7215	13.1284
4.6873	11.3274
4.6536	13.1289
4.6205	15.4008
4.5877	16.3398
4.5555	16.0249
4.5237	13.5805
4.4923	10.5066
4.4614	10.0095
4.4309	11.2182
4.4008	12.7182
4.3711	14.9084
4.3418	16.5039
4.3129	16.5681
4.2844	16.0344
4.2563	16.8737
4.2285	16.7043
4.2011	17.0756
4.174	17.5422
4.1473	17.9499
4.1209	18.3886
4.0949	18.9113
4.0692	19.1552
4.0438	19.0954
4.0187	18.8303
3.994	18.8156
3.9695	18.9877
3.9453	19.1965
3.9214	19.2958
3.8979	19.0461
3.8746	18.6721
3.8515	18.3872
3.8288	18.3986
3.8063	18.1872
3.7841	17.8896
3.7621	17.4211
3.7404	16.9943
3.7189	16.7607
3.6977	16.822
3.6767	16.7307
3.656	16.5244
3.6355	16.2038
3.6152	15.7981
3.5951	15.3491
3.5753	14.9658
3.5557	14.4702
3.5363	13.9951
3.5171	13.06
3.4981	12.0827
3.4793	12.1196
3.4607	11.7378
3.4423	11.0444
3.4241	9.9114
3.4061	9.8305
3.3883	9.9199
3.3707	9.8301
3.3533	9.8366
3.336	9.7109
3.3189	9.4343
3.302	9.1548
3.2853	8.7917
3.2687	8.4419
3.2523	8.1333
3.2361	7.8533
3.22	7.5959
3.204	7.2849
3.1883	7.0339
3.1727	6.8254
3.1572	6.5803
3.1419	6.3804
3.1268	6.2095
3.1117	6.0603
3.0969	5.9197
3.0821	5.7803
3.0675	5.7248
3.0531	5.6435
3.0388	5.5588
3.0246	5.5027
3.0105	5.4194
2.9966	5.3721
2.9828	5.2148
2.9692	5.0837
2.9556	4.9985
2.9422	5.0515
2.9289	5.0171
2.9157	4.8481
2.9027	4.6736
2.8897	4.7458
2.8769	5.1186
2.8642	5.3984
2.8516	5.6348
2.8391	5.5659
2.8267	5.9326
2.8144	6.3618
2.8022	6.5652
2.7902	6.8642
2.7782	6.8364
2.7664	6.2095
2.7546	5.9551
2.7429	6.9765
2.7314	8.1074
2.7199	9.7807
2.7085	10.4458
2.6973	14.2797
2.6861	24.7265
2.675	29.5419
2.664	31.5258
2.6531	33.5121
2.6423	34.6212
2.6315	34.5959
2.6209	34.8573
2.6103	35.5597
2.5999	36.0324
2.5895	36.0048
2.5792	36.3468
2.569	36.0541
2.5588	36.6095
2.5487	36.6689
2.5388	36.8468
2.5289	36.9075
2.519	36.9091
2.5093	37.0546
2.4996	37.2599
2.49	37.3119
2.4805	37.4115
2.471	37.6862
2.4616	37.8626
2.4523	38.0255
2.4431	38.2318
2.4339	38.4876
2.4248	38.7702
2.4157	38.7782
2.4068	39.0819
2.3979	39.1989
2.389	39.2179
2.3802	39.4223
2.3715	39.5004
2.3629	39.4652
2.3543	39.5363
2.3458	39.6769
2.3373	39.7731
2.3289	39.7956
2.3206	39.9018
2.3123	39.9606
2.3041	40.0975
2.2959	40.2655
2.2878	40.2582
2.2798	40.3161
2.2718	40.4157
2.2638	40.421
2.2559	40.5333
2.2481	40.7492
2.2403	40.6491
2.2326	40.7909
2.225	40.6549
2.2173	40.5248
2.2098	39.9945
2.2023	40.0099
2.1948	40.1918
2.1874	40.2936
2.18	40.495
2.1727	40.5548
2.1655	40.5961
2.1583	41.0376
2.1511	40.8324
2.144	40.9818
2.1369	41.0871
2.1299	40.9975
2.1229	41.298
2.116	41.3114
2.1091	41.0826
2.1023	41.1508
2.0955	41.0192
2.0887	40.9601
2.082	41.1056
2.06	40.8702
2.028	40.4563
1.996	39.9564
1.964	38.6605
1.932	37.9487
1.9	38.3081
1.868	41.1695
1.836	41.4566
1.804	41.1587
1.772	41.0246
1.74	41.0246
1.708	40.9714
1.676	40.883
1.644	40.719
1.612	40.1954
1.58	40.2372
1.548	39.8754
1.516	39.5266
1.484	39.3201
1.452	38.6877
1.42	37.9474
1.388	38.1851
1.356	38.4965
1.324	38.3132
1.292	37.6541
1.26	37.5132
1.228	36.4021
1.196	36.0572
1.164	34.8156
1.132	34.3913
1.1	34.3492
1.068	33.2406
1.036	32.1132
1.004	31.6908
0.972	30.5199
0.94	29.8109
0.908	29.2331
0.876	28.0807
0.844	27.5599
0.812	27.0131
0.795	26.2961
0.787	26.2457
0.779	26.0022
0.771	26.0022
0.763	25.5751
0.755	25.3746
0.747	24.8938
0.739	24.6653
0.731	24.3116
0.723	23.8936
0.715	23.4576
0.707	23.3117
0.699	22.7337
0.691	22.5605
0.683	22.3455
0.675	21.5828
0.667	21.0534
0.659	20.8892
0.651	20.3731
0.643	19.9684
0.635	20.0381
0.627	19.4234
0.619	18.9753
0.611	18.5575
0.603	17.6433
0.595	17.627
0.587	17.2614
0.579	16.5785
0.571	15.7807
0.563	15.1925
0.555	14.5402
0.547	13.7236
0.539	13.0435
0.531	12.1154
0.523	11.3676
0.515	10.7246
0.507	9.8598
0.499	9.1416
0.491	8.3083
0.483	7.8782
0.475	6.9357
0.467	6.6753
0.459	6.4332
0.451	6.1581
0.443	5.319
0.435	4.5449
0.427	3.6257
0.419	2.6228
0.411	2.0937
0.403	1.4966
