Name: Brown to dark brown sandy loam
Type: Soils
Class: Mollisol
Subclass: Hapludoll
Particle Size: see additional information
Sample No.: 87P764
Owner: JHU
Origin: Jefferson Co., Tn. via USDA Soil Conservation service.
Description: Parent material is alluvium from mixed materials.  Brown to
Measurement: Directional (10 degree) hemispherical reflectance
X Units: Wavelength (micrometers)
Y Units: Reflectance (percent)
wavelength	value
14.0112	2.1047
13.7147	2.4133
13.4304	2.5381
13.1577	2.5879
12.8959	2.948
12.6443	2.4336
12.4023	1.9751
12.1694	1.55
11.945	2.2466
11.7289	2.8105
11.5203	3.0527
11.3191	3.1601
11.1248	3.0776
10.937	2.8833
10.7555	3.0481
10.5799	3.2322
10.4099	3.3247
10.2454	3.3811
10.0859	3.6023
9.9313	3.9885
9.7814	4.2932
9.636	4.9534
9.4948	5.8237
9.3577	8.1653
9.2245	9.2685
9.095	8.9531
8.9691	8.4724
8.8467	8.6582
8.7275	8.3064
8.6116	6.8764
8.4986	8.8308
8.3886	9.4865
8.2814	10.583
8.1769	11.1274
8.075	7.7534
7.9756	5.0561
7.8786	3.1221
7.784	2.3108
7.6916	1.9216
7.6014	1.5601
7.5133	1.4077
7.4272	1.2961
7.343	1.2764
7.2607	1.2954
7.1803	1.3882
7.1016	1.4695
7.0246	1.522
6.9493	1.6653
6.8755	1.8027
6.8034	1.929
6.7327	2.0107
6.6634	2.1401
6.5956	2.0832
6.5292	2.1123
6.464	2.4167
6.4002	2.4324
6.3376	2.1831
6.2762	1.9241
6.216	1.7612
6.157	1.8135
6.099	1.9595
6.0421	2.0835
5.9863	2.2236
5.9315	2.344
5.8777	2.8733
5.8249	3.5215
5.773	4.1567
5.722	4.7485
5.6719	4.7368
5.6227	4.0171
5.5744	3.9734
5.5268	4.4614
5.4801	5.1968
5.4341	5.4043
5.3889	4.3328
5.3445	3.8049
5.3008	4.0674
5.2578	4.7331
5.2154	6.0776
5.1738	6.5603
5.1328	6.5915
5.0925	6.6213
5.0528	6.3913
5.0137	6.4394
4.9752	7.0549
4.9373	8.2683
4.9	10.4597
4.8632	13.9474
4.827	15.8475
4.7913	16.9606
4.7561	17.864
4.7215	18.3501
4.6873	17.4287
4.6536	18.6572
4.6205	20.2387
4.5877	21.051
4.5555	21.2031
4.5237	20.0761
4.4923	18.2053
4.4614	18.0197
4.4309	19.1
4.4008	20.3117
4.3711	21.8561
4.3418	22.955
4.3129	23.1389
4.2844	22.863
4.2563	23.3017
4.2285	23.3351
4.2011	23.5617
4.174	23.7866
4.1473	23.9775
4.1209	24.165
4.0949	24.3942
4.0692	24.4523
4.0438	24.322
4.0187	24.1093
3.994	23.9145
3.9695	23.8984
3.9453	23.8981
3.9214	23.8762
3.8979	23.5698
3.8746	23.2314
3.8515	22.905
3.8288	22.6713
3.8063	22.3854
3.7841	22.0222
3.7621	21.4974
3.7404	20.9997
3.7189	20.6311
3.6977	20.2829
3.6767	19.8875
3.656	19.4865
3.6355	19
3.6152	18.4543
3.5951	17.9179
3.5753	17.3574
3.5557	16.7751
3.5363	16.1713
3.5171	15.3593
3.4981	14.6059
3.4793	14.2143
3.4607	13.7341
3.4423	13.1794
3.4241	12.313
3.4061	11.9851
3.3883	11.8381
3.3707	11.6115
3.3533	11.4294
3.336	11.156
3.3189	10.7839
3.302	10.3208
3.2853	9.8789
3.2687	9.4602
3.2523	9.0486
3.2361	8.695
3.22	8.333
3.204	8.0132
3.1883	7.706
3.1727	7.4192
3.1572	7.125
3.1419	6.8874
3.1268	6.6699
3.1117	6.4702
3.0969	6.3196
3.0821	6.178
3.0675	6.1262
3.0531	6.0105
3.0388	5.9324
3.0246	5.904
3.0105	5.79
2.9966	5.698
2.9828	5.615
2.9692	5.5503
2.9556	5.4448
2.9422	5.4922
2.9289	5.5283
2.9157	5.4927
2.9027	5.6026
2.8897	5.7419
2.8769	5.8379
2.8642	6.0415
2.8516	6.1782
2.8391	6.2214
2.8267	6.2864
2.8144	6.4089
2.8022	6.2744
2.7902	6.0256
2.7782	5.5261
2.7664	4.7593
2.7546	4.4556
2.7429	5.2934
2.7314	6.4028
2.7199	8.3279
2.7085	8.6494
2.6973	10.8659
2.6861	22.8207
2.675	29.81
2.664	33.2384
2.6531	35.6781
2.6423	37.0685
2.6315	37.6581
2.6209	38.3209
2.6103	38.9132
2.5999	39.2833
2.5895	39.5548
2.5792	39.932
2.569	40.2819
2.5588	40.525
2.5487	40.787
2.5388	40.9464
2.5289	41.0734
2.519	41.1618
2.5093	41.2829
2.4996	41.4791
2.49	41.62
2.4805	41.893
2.471	42.1803
2.4616	42.288
2.4523	42.5995
2.4431	42.8007
2.4339	43.1175
2.4248	43.6477
2.4157	44.0497
2.4068	44.4056
2.3979	44.4493
2.389	44.5971
2.3802	44.6571
2.3715	44.8656
2.3629	44.8815
2.3543	44.8617
2.3458	44.8971
2.3373	45.1893
2.3289	45.6498
2.3206	46.0787
2.3123	46.4003
2.3041	46.7274
2.2959	47.1195
2.2878	47.329
2.2798	47.5275
2.2718	47.6061
2.2638	47.4889
2.2559	47.4193
2.2481	47.452
2.2403	47.5165
2.2326	47.2758
2.225	46.9324
2.2173	46.298
2.2098	45.2296
2.2023	45.5743
2.1948	46.2733
2.1874	46.7278
2.18	47.3109
2.1727	47.777
2.1655	48.0135
2.1583	48.4196
2.1511	48.7276
2.144	48.8522
2.1369	49.2013
2.1299	49.3783
2.1229	49.4005
2.116	49.3597
2.1091	49.4501
2.1023	49.3202
2.0955	49.4156
2.0887	49.5176
2.082	49.2921
2.06	49.1021
2.028	48.4301
1.996	48.0745
1.964	46.0923
1.932	45.0884
1.9	45.0221
1.868	50.0187
1.836	50.6143
1.804	50.6252
1.772	50.3808
1.74	50.5475
1.708	50.3598
1.676	50.0938
1.644	49.9195
1.612	49.1147
1.58	49.6218
1.548	49.219
1.516	48.5842
1.484	47.8319
1.452	47.4638
1.42	46.8564
1.388	46.179
1.356	47.4009
1.324	46.6779
1.292	46.5764
1.26	45.5733
1.228	45.1556
1.196	44.3641
1.164	43.3747
1.132	42.4666
1.1	41.5088
1.068	40.418
1.036	39.577
1.004	38.3819
0.972	37.1737
0.94	36.6561
0.908	35.043
0.876	34.1813
0.844	33.8842
0.812	32.8851
0.795	32.4692
0.787	32.1147
0.779	31.8218
0.771	31.2903
0.763	30.9173
0.755	30.2573
0.747	29.6641
0.739	29.4381
0.731	28.6375
0.723	28.0054
0.715	27.2767
0.707	26.7075
0.699	26.1892
0.691	25.5624
0.683	25.0005
0.675	24.1507
0.667	24.1742
0.659	23.402
0.651	22.908
0.643	22.4094
0.635	21.7456
0.627	21.2057
0.619	20.4071
0.611	19.5078
0.603	19.0267
0.595	18.5355
0.587	17.7874
0.579	17.5616
0.571	16.5137
0.563	15.7431
0.555	14.144
0.547	13.2496
0.539	12.3238
0.531	11.0628
0.523	10.4833
0.515	9.6023
0.507	8.8085
0.499	8.0135
0.491	7.1812
0.483	6.6715
0.475	6.2288
0.467	5.5447
0.459	5.3517
0.451	4.7752
0.443	4.1407
0.435	3.4092
0.427	2.674
0.419	2.0608
0.411	1.272
0.403	0.6888
