Name: Brown sandy loam
Type: Soils
Class: Inceptisol
Subclass: Haplumbrept
Particle Size: see additional information
Sample No.: 88P4699
Owner: JHU
Origin: Yancey Co., NC. via USDA Soil Conservation service.
Description: Brown sandy loam (coarse-loamy over sandy-skeletal,
Measurement: Directional (10 degree) hemispherical reflectance
X Units: Wavelength (micrometers)
Y Units: Reflectance (percent)
wavelength	value
14.0112	1.8442
13.7147	1.9736
13.4304	2.0947
13.1577	2.1182
12.8959	2.6763
12.6443	2.6106
12.4023	2.3843
12.1694	1.9507
11.945	2.356
11.7289	2.7458
11.5203	3.0505
11.3191	3.2339
11.1248	3.4521
10.937	3.4424
10.7555	3.4578
10.5799	3.6882
10.4099	4.3725
10.2454	5.031
10.0859	5.5642
9.9313	6.1445
9.7814	6.6802
9.636	7.5534
9.4948	7.0354
9.3577	8.4404
9.2245	9.574
9.095	9.501
8.9691	9.0566
8.8467	8.6406
8.7275	7.6565
8.6116	5.966
8.4986	7.1689
8.3886	7.2243
8.2814	7.0691
8.1769	6.2624
8.075	4.3235
7.9756	3.011
7.8786	2.248
7.784	1.9907
7.6916	1.8594
7.6014	1.7893
7.5133	1.7866
7.4272	1.7556
7.343	1.7405
7.2607	1.7356
7.1803	1.7637
7.1016	1.7844
7.0246	1.8088
6.9493	1.907
6.8755	1.9905
6.8034	2.1782
6.7327	2.4878
6.6634	2.5666
6.5956	2.4341
6.5292	2.3752
6.464	2.3459
6.4002	2.2607
6.3376	2.1851
6.2762	2.094
6.216	2.0024
6.157	1.9529
6.099	1.9607
6.0421	1.988
5.9863	2.0815
5.9315	2.1948
5.8777	2.4504
5.8249	2.7649
5.773	3.0779
5.722	3.6055
5.6719	4.1128
5.6227	4.3276
5.5744	4.8782
5.5268	5.6831
5.4801	6.426
5.4341	6.8039
5.3889	6.5569
5.3445	6.5254
5.3008	6.7978
5.2578	7.2905
5.2154	8.0361
5.1738	8.4223
5.1328	8.5493
5.0925	8.6301
5.0528	8.6267
5.0137	8.6738
4.9752	8.935
4.9373	9.5451
4.9	10.4926
4.8632	11.7973
4.827	12.4653
4.7913	12.9121
4.7561	13.2741
4.7215	13.5544
4.6873	13.4477
4.6536	13.9555
4.6205	14.5456
4.5877	14.9206
4.5555	15.0837
4.5237	14.8674
4.4923	14.3737
4.4614	14.3679
4.4309	14.7102
4.4008	15.0202
4.3711	15.3693
4.3418	15.559
4.3129	15.4423
4.2844	15.2531
4.2563	15.2536
4.2285	15.0034
4.2011	14.9511
4.174	14.8117
4.1473	14.6491
4.1209	14.5261
4.0949	14.3535
4.0692	14.2111
4.0438	14.01
4.0187	13.8266
3.994	13.6584
3.9695	13.5805
3.9453	13.4685
3.9214	13.3679
3.8979	13.2341
3.8746	13.0842
3.8515	12.9218
3.8288	12.76
3.8063	12.5861
3.7841	12.3706
3.7621	12.1296
3.7404	11.8576
3.7189	11.6355
3.6977	11.3943
3.6767	11.1645
3.656	10.9006
3.6355	10.6233
3.6152	10.3142
3.5951	10.0227
3.5753	9.7007
3.5557	9.3476
3.5363	8.9883
3.5171	8.2729
3.4981	7.6142
3.4793	7.7024
3.4607	7.4563
3.4423	7.0412
3.4241	6.4201
3.4061	6.3869
3.3883	6.6111
3.3707	6.7309
3.3533	6.8047
3.336	6.7966
3.3189	6.708
3.302	6.5962
3.2853	6.4314
3.2687	6.2729
3.2523	6.1374
3.2361	6.0303
3.22	5.906
3.204	5.7822
3.1883	5.6704
3.1727	5.561
3.1572	5.4534
3.1419	5.3227
3.1268	5.2185
3.1117	5.1265
3.0969	5.0369
3.0821	4.9709
3.0675	4.8367
3.0531	4.7861
3.0388	4.7561
3.0246	4.696
3.0105	4.6811
2.9966	4.5962
2.9828	4.6233
2.9692	4.5268
2.9556	4.49
2.9422	4.5193
2.9289	4.5325
2.9157	4.4712
2.9027	4.4128
2.8897	4.5708
2.8769	4.7373
2.8642	4.8855
2.8516	4.9421
2.8391	4.8855
2.8267	5.0959
2.8144	5.4451
2.8022	5.5847
2.7902	5.5735
2.7782	5.3315
2.7664	4.9387
2.7546	4.9524
2.7429	5.8164
2.7314	7.1152
2.7199	9.7055
2.7085	11.9448
2.6973	15.4836
2.6861	21.5898
2.675	23.84
2.664	25.2634
2.6531	26.6926
2.6423	27.486
2.6315	27.6042
2.6209	27.9133
2.6103	28.2121
2.5999	28.4299
2.5895	28.5505
2.5792	28.7914
2.569	28.8725
2.5588	28.9245
2.5487	28.9753
2.5388	29.1437
2.5289	29.1481
2.519	29.0685
2.5093	29.1027
2.4996	29.0566
2.49	29.1506
2.4805	29.2514
2.471	29.4093
2.4616	29.579
2.4523	29.7101
2.4431	29.9125
2.4339	30.1305
2.4248	30.4374
2.4157	30.7082
2.4068	31.0209
2.3979	31.1784
2.389	31.2907
2.3802	31.3163
2.3715	31.4093
2.3629	31.349
2.3543	31.1847
2.3458	31.1552
2.3373	31.5116
2.3289	31.8984
2.3206	32.1943
2.3123	32.2333
2.3041	32.3637
2.2959	32.6879
2.2878	32.8947
2.2798	33.0912
2.2718	33.1659
2.2638	33.3312
2.2559	33.415
2.2481	33.7226
2.2403	34.0019
2.2326	34.0917
2.225	33.9189
2.2173	33.5358
2.2098	32.8747
2.2023	32.6903
2.1948	32.8153
2.1874	33.4762
2.18	34.0434
2.1727	34.4538
2.1655	34.6857
2.1583	34.7404
2.1511	34.8798
2.144	34.9938
2.1369	35.0504
2.1299	34.9853
2.1229	35.0246
2.116	35.0302
2.1091	35.0556
2.1023	35.1342
2.0955	35.1825
2.0887	35.235
2.082	35.2145
2.06	35.2027
2.028	35.6132
1.996	35.2085
1.964	33.8712
1.932	32.6495
1.9	33.2888
1.868	36.9971
1.836	37.6303
1.804	37.2583
1.772	37.0867
1.74	37.5409
1.708	37.0701
1.676	36.8304
1.644	36.6289
1.612	36.643
1.58	35.7148
1.548	35.6223
1.516	35.4841
1.484	34.3054
1.452	34.1102
1.42	33.7324
1.388	33.2798
1.356	33.8511
1.324	33.1932
1.292	32.9104
1.26	31.9711
1.228	31.7732
1.196	30.8709
1.164	30.0874
1.132	29.0049
1.1	28.3451
1.068	27.7976
1.036	27.5686
1.004	26.6691
0.972	26.0701
0.94	25.1948
0.908	24.39
0.876	24.316
0.844	23.9213
0.812	23.4766
0.795	22.6438
0.787	22.4697
0.779	22.1213
0.771	21.6852
0.763	21.2214
0.755	21.0321
0.747	20.884
0.739	20.5067
0.731	20.0494
0.723	19.4716
0.715	19.1827
0.707	18.7326
0.699	18.5601
0.691	17.8413
0.683	17.3139
0.675	16.7058
0.667	16.4794
0.659	16.0483
0.651	15.5861
0.643	14.9781
0.635	14.2553
0.627	14.1411
0.619	13.5262
0.611	13.1245
0.603	12.8654
0.595	12.5598
0.587	12.2761
0.579	12.123
0.571	11.593
0.563	11.4448
0.555	10.2942
0.547	9.7282
0.539	9.6798
0.531	8.9755
0.523	8.6901
0.515	8.2124
0.507	7.3718
0.499	6.8189
0.491	6.4757
0.483	6.1053
0.475	5.7531
0.467	5.4239
0.459	5.2636
0.451	4.8442
0.443	4.555
0.435	4.3635
0.427	3.5931
0.419	3.2607
0.411	2.7161
0.403	2.4139
