Name: Brown gravelly sandy loam
Type: Soils
Class: Aridisol
Subclass: Haplargid
Particle Size: see additional information
Sample No.: 89P1793
Owner: JHU
Origin: Inyo Co., Ca., (Wild Horse Mesa) via USDA Soil Conservation
Description: The parent material is alluvium from fan terrace.  Brown
Measurement: Directional (10 degree) hemispherical reflectance
X Units: Wavelength (micrometers)
Y Units: Reflectance (percent)
wavelength	value
14.9831	0.5875
14.6445	1.4578
14.3209	1.4555
14.0112	2.0975
13.7147	2.2862
13.4304	2.3608
13.1577	2.4795
12.8959	2.672
12.6443	2.5306
12.4023	2.5261
12.1694	2.8015
11.945	3.3476
11.7289	3.7391
11.5203	3.8892
11.3191	3.9963
11.1248	4.0228
10.937	3.87
10.7555	3.9155
10.5799	4.1353
10.4099	4.4521
10.2454	4.8261
10.0859	5.4669
9.9313	6.1314
9.7814	6.479
9.636	7.6797
9.4948	8.1256
9.3577	8.4581
9.2245	8.3066
9.095	7.5227
8.9691	7.1651
8.8467	7.7983
8.7275	7.7354
8.6116	6.9413
8.4986	7.7832
8.3886	7.9646
8.2814	7.8729
8.1769	7.0491
8.075	4.8166
7.9756	3.3552
7.8786	2.4158
7.784	2.0726
7.6916	1.9824
7.6014	1.9367
7.5133	1.9507
7.4272	2.0553
7.343	2.1223
7.2607	2.312
7.1803	2.4932
7.1016	2.6838
7.0246	2.7831
6.9493	2.9919
6.8755	3.1357
6.8034	3.337
6.7327	3.5205
6.6634	3.6346
6.5956	3.6759
6.5292	3.8175
6.464	3.9719
6.4002	3.9115
6.3376	3.8672
6.2762	3.75
6.216	3.43
6.157	3.2155
6.099	3.1909
6.0421	3.2851
5.9863	3.6275
5.9315	3.9387
5.8777	4.37
5.8249	4.8846
5.773	5.2197
5.722	5.5105
5.6719	5.6102
5.6227	5.5351
5.5744	5.6078
5.5268	5.9872
5.4801	6.4123
5.4341	6.6979
5.3889	6.6199
5.3445	6.4859
5.3008	6.808
5.2578	7.3017
5.2154	8.0063
5.1738	8.4927
5.1328	8.8178
5.0925	9.1489
5.0528	9.3893
5.0137	9.6228
4.9752	10.1068
4.9373	10.7455
4.9	11.4664
4.8632	12.5538
4.827	13.2562
4.7913	13.6986
4.7561	14.2423
4.7215	14.7404
4.6873	14.7434
4.6536	15.3859
4.6205	16.327
4.5877	17.1452
4.5555	17.8471
4.5237	17.9679
4.4923	17.8734
4.4614	18.4084
4.4309	19.3317
4.4008	20.3074
4.3711	21.5488
4.3418	22.7175
4.3129	23.4261
4.2844	23.8746
4.2563	24.5865
4.2285	25.1775
4.2011	25.7506
4.174	26.3223
4.1473	26.8632
4.1209	27.3908
4.0949	27.9203
4.0692	28.2957
4.0438	28.4288
4.0187	28.4553
3.994	28.5543
3.9695	28.8297
3.9453	29.1302
3.9214	29.2463
3.8979	29.1624
3.8746	28.9417
3.8515	28.7374
3.8288	28.6142
3.8063	28.4683
3.7841	28.1278
3.7621	27.6577
3.7404	27.177
3.7189	26.848
3.6977	26.5894
3.6767	26.3564
3.656	26.0362
3.6355	25.6078
3.6152	25.0831
3.5951	24.5334
3.5753	23.9174
3.5557	23.2608
3.5363	22.6029
3.5171	21.73
3.4981	20.8765
3.4793	20.3839
3.4607	19.7935
3.4423	19.0064
3.4241	17.9741
3.4061	17.3936
3.3883	16.9688
3.3707	16.4189
3.3533	15.9652
3.336	15.4132
3.3189	14.7797
3.302	14.1438
3.2853	13.5234
3.2687	12.9174
3.2523	12.3599
3.2361	11.8278
3.22	11.2971
3.204	10.7678
3.1883	10.2359
3.1727	9.7964
3.1572	9.3035
3.1419	8.9209
3.1268	8.536
3.1117	8.1765
3.0969	7.8763
3.0821	7.7107
3.0675	7.482
3.0531	7.3555
3.0388	7.257
3.0246	7.1109
3.0105	6.9423
2.9966	6.7436
2.9828	6.5546
2.9692	6.4402
2.9556	6.3947
2.9422	6.3505
2.9289	6.3448
2.9157	6.3666
2.9027	6.3888
2.8897	6.4705
2.8769	6.5418
2.8642	6.5951
2.8516	6.601
2.8391	6.5624
2.8267	6.4539
2.8144	6.2344
2.8022	5.9339
2.7902	5.6376
2.7782	5.2163
2.7664	4.5566
2.7546	4.3835
2.7429	5.0484
2.7314	5.9
2.7199	6.9903
2.7085	7.5203
2.6973	9.5695
2.6861	17.9452
2.675	23.2541
2.664	26.0708
2.6531	28.8745
2.6423	30.3955
2.6315	30.5445
2.6209	31.3177
2.6103	32.108
2.5999	32.4954
2.5895	32.8023
2.5792	33.3529
2.569	33.786
2.5588	34.2959
2.5487	34.7513
2.5388	35.0895
2.5289	35.4066
2.519	35.5086
2.5093	35.7061
2.4996	35.8804
2.49	35.9766
2.4805	36.1997
2.471	36.3969
2.4616	36.5861
2.4523	36.8047
2.4431	36.9916
2.4339	37.3944
2.4248	37.8323
2.4157	38.2832
2.4068	38.5936
2.3979	38.5977
2.389	38.6055
2.3802	38.5863
2.3715	38.6744
2.3629	38.1662
2.3543	37.6665
2.3458	37.6608
2.3373	38.0925
2.3289	38.7682
2.3206	39.5459
2.3123	40.2786
2.3041	41.0227
2.2959	41.6265
2.2878	42.2558
2.2798	42.7746
2.2718	42.9965
2.2638	42.8045
2.2559	42.3874
2.2481	42.4199
2.2403	42.49
2.2326	42.4769
2.225	41.8951
2.2173	41.0823
2.2098	39.6617
2.2023	39.9352
2.1948	40.7963
2.1874	41.829
2.18	42.7315
2.1727	43.418
2.1655	43.9516
2.1583	44.429
2.1511	45.085
2.144	45.5589
2.1369	45.8591
2.1299	45.9489
2.1229	45.9974
2.116	46.0718
2.1091	46.1244
2.1023	46.2343
2.0955	46.3287
2.0887	46.3984
2.082	46.3136
2.06	46.2766
2.028	46.2647
1.996	44.8265
1.964	43.2268
1.932	41.6951
1.9	40.3956
1.868	46.5212
1.836	47.6331
1.804	47.6385
1.772	47.6243
1.74	47.4994
1.708	47.2922
1.676	46.8897
1.644	46.4245
1.612	46.6433
1.58	46.0184
1.548	45.5232
1.516	45.4326
1.484	44.4784
1.452	43.8496
1.42	42.9473
1.388	41.6831
1.356	42.9535
1.324	42.9317
1.292	43.2571
1.26	42.1141
1.228	41.8617
1.196	40.8718
1.164	40.065
1.132	38.8155
1.1	39.5547
1.068	38.6459
1.036	37.8954
1.004	38.033
0.972	37.0194
0.94	36.5179
0.908	36.1196
0.876	35.8296
0.844	36.1323
0.812	35.6316
0.795	35.3645
0.787	35.4508
0.779	34.628
0.771	34.6894
0.763	34.2306
0.755	33.9651
0.747	33.5457
0.739	33.4107
0.731	32.9601
0.723	32.2972
0.715	32.0421
0.707	31.5934
0.699	32.5005
0.691	30.8978
0.683	30.6874
0.675	30.2893
0.667	29.5166
0.659	29.3604
0.651	28.8416
0.643	27.8392
0.635	27.3771
0.627	27.0217
0.619	26.5915
0.611	25.4813
0.603	25.0433
0.595	24.5863
0.587	23.7712
0.579	22.6659
0.571	21.8199
0.563	21.1258
0.555	19.3408
0.547	18.3214
0.539	16.9761
0.531	16.369
0.523	15.1908
0.515	14.454
0.507	13.3927
0.499	12.5668
0.491	11.5955
0.483	11.0182
0.475	10.3635
0.467	9.4529
0.459	8.6305
0.451	8.3861
0.443	7.5086
0.435	6.5168
0.427	5.8017
0.419	4.645
0.411	4.08
0.403	3.1888
