Name: Light yellowish brown clay
Type: Soils
Class: Aridisol
Subclass: Salorthid
Particle Size: see additional information
Sample No.: 89P1763
Owner: JHU
Origin: San Bernadino Co., Ca.  China Lake via USDA Soil Conservation
Description: The parent material is alluvium over lacustrine material
Measurement: Directional (10 degree) hemispherical reflectance
X Units: Wavelength (micrometers)
Y Units: Reflectance (percent)
wavelength	value
14.9831	0.3706
14.6445	0.351
14.3209	0.9127
14.0112	1.0806
13.7147	1.3501
13.4304	1.4993
13.1577	1.5161
12.8959	1.5874
12.6443	1.671
12.4023	1.9971
12.1694	2.1543
11.945	2.2251
11.7289	2.3002
11.5203	2.3009
11.3191	2.3549
11.1248	2.304
10.937	2.1581
10.7555	2.1775
10.5799	2.1631
10.4099	2.2119
10.2454	2.2831
10.0859	2.411
9.9313	2.6081
9.7814	2.7061
9.636	2.8903
9.4948	2.9074
9.3577	2.8688
9.2245	2.6519
9.095	2.457
8.9691	2.4603
8.8467	2.452
8.7275	2.4193
8.6116	2.3809
8.4986	2.5742
8.3886	2.838
8.2814	3.2044
8.1769	3.4485
8.075	3.8492
7.9756	4.2087
7.8786	4.3832
7.784	4.6475
7.6916	4.7995
7.6014	4.6399
7.5133	4.4903
7.4272	4.0747
7.343	3.3059
7.2607	2.7042
7.1803	2.448
7.1016	2.7719
7.0246	2.7272
6.9493	2.6452
6.8755	2.6291
6.8034	2.7712
6.7327	3.1385
6.6634	3.5683
6.5956	3.9484
6.5292	4.2909
6.464	4.6084
6.4002	4.3193
6.3376	3.8748
6.2762	3.4161
6.216	2.6448
6.157	1.7406
6.099	1.778
6.0421	2.1124
5.9863	2.6481
5.9315	2.9806
5.8777	3.5759
5.8249	4.1841
5.773	4.5187
5.722	4.792
5.6719	4.9367
5.6227	5.1211
5.5744	4.1675
5.5268	5.5391
5.4801	6.1191
5.4341	6.5544
5.3889	6.8849
5.3445	7.0391
5.3008	7.3541
5.2578	7.696
5.2154	8.1098
5.1738	8.6274
5.1328	9.0601
5.0925	9.5141
5.0528	9.937
5.0137	10.1902
4.9752	10.5073
4.9373	10.8125
4.9	11.1344
4.8632	11.5647
4.827	11.8316
4.7913	11.9542
4.7561	12.0113
4.7215	12.1614
4.6873	12.2088
4.6536	12.5977
4.6205	13.1842
4.5877	13.615
4.5555	14.0325
4.5237	14.316
4.4923	14.5095
4.4614	14.8062
4.4309	15.1972
4.4008	15.5943
4.3711	15.9604
4.3418	16.3007
4.3129	16.5705
4.2844	16.7344
4.2563	17.1275
4.2285	17.2816
4.2011	17.8081
4.174	18.1453
4.1473	18.4283
4.1209	18.5649
4.0949	18.5467
4.0692	18.2206
4.0438	17.3778
4.0187	15.8858
3.994	12.6081
3.9695	11.9556
3.9453	14.2502
3.9214	15.5735
3.8979	15.8591
3.8746	15.8693
3.8515	15.8318
3.8288	16.2951
3.8063	16.9041
3.7841	17.1564
3.7621	16.8869
3.7404	16.5539
3.7189	16.1804
3.6977	15.8001
3.6767	15.3824
3.656	14.9428
3.6355	14.5334
3.6152	14.0931
3.5951	13.6086
3.5753	13.0658
3.5557	12.6213
3.5363	12.0369
3.5171	11.1102
3.4981	10.3211
3.4793	9.7045
3.4607	9.951
3.4423	9.8039
3.4241	9.4589
3.4061	9.1612
3.3883	8.8823
3.3707	8.5853
3.3533	8.2114
3.336	8.3044
3.3189	8.1472
3.302	7.8628
3.2853	7.5935
3.2687	7.3564
3.2523	7.1213
3.2361	6.9145
3.22	6.664
3.204	6.4153
3.1883	6.1818
3.1727	5.9377
3.1572	5.69
3.1419	5.4579
3.1268	5.2481
3.1117	5.0454
3.0969	4.8651
3.0821	4.7086
3.0675	4.5658
3.0531	4.437
3.0388	4.3849
3.0246	4.2314
3.0105	4.1137
2.9966	3.9823
2.9828	3.8336
2.9692	3.6723
2.9556	3.5376
2.9422	3.4826
2.9289	3.3919
2.9157	3.3266
2.9027	3.2695
2.8897	3.2557
2.8769	3.2389
2.8642	3.1788
2.8516	3.0495
2.8391	2.9372
2.8267	2.9209
2.8144	2.9152
2.8022	2.8491
2.7902	2.86
2.7782	2.6504
2.7664	2.6426
2.7546	2.8873
2.7429	3.6351
2.7314	4.8841
2.7199	5.9531
2.7085	7.7732
2.6973	11.3958
2.6861	16.6392
2.675	20.4344
2.664	22.9394
2.6531	25.6659
2.6423	27.4022
2.6315	27.8754
2.6209	28.9368
2.6103	30.0166
2.5999	30.478
2.5895	30.8114
2.5792	31.3191
2.569	31.4382
2.5588	31.3168
2.5487	31.0323
2.5388	30.886
2.5289	31.1728
2.519	31.5001
2.5093	31.7426
2.4996	31.9521
2.49	32.3275
2.4805	32.9183
2.471	33.6942
2.4616	34.496
2.4523	35.4636
2.4431	36.4412
2.4339	37.1386
2.4248	38.0279
2.4157	39.2558
2.4068	40.4867
2.3979	41.3033
2.389	41.865
2.3802	42.3261
2.3715	42.8284
2.3629	43.2911
2.3543	43.7036
2.3458	44.052
2.3373	44.6066
2.3289	45.1217
2.3206	45.0142
2.3123	44.3677
2.3041	44.9043
2.2959	45.6856
2.2878	46.9099
2.2798	48.3623
2.2718	49.2139
2.2638	49.2887
2.2559	49.0699
2.2481	49.041
2.2403	49.1097
2.2326	49.1345
2.225	48.9226
2.2173	48.6609
2.2098	48.5821
2.2023	49.4469
2.1948	50.3468
2.1874	50.8621
2.18	50.9978
2.1727	51.3874
2.1655	51.722
2.1583	52.2432
2.1511	52.6231
2.144	52.5963
2.1369	52.2652
2.1299	51.8511
2.1229	51.3777
2.116	50.8749
2.1091	51.0409
2.1023	51.4646
2.0955	51.7978
2.0887	51.7613
2.082	51.7064
2.06	51.8891
2.028	51.5995
1.996	49.0682
1.964	45.4329
1.932	41.3449
1.9	36.9425
1.868	54.2538
1.836	60.617
1.804	60.4368
1.772	61.3246
1.74	61.8174
1.708	61.9
1.676	61.5243
1.644	61.3496
1.612	61.2546
1.58	60.8556
1.548	59.4327
1.516	58.7991
1.484	57.0783
1.452	54.5129
1.42	51.079
1.388	54.062
1.356	56.6145
1.324	55.7824
1.292	56.2587
1.26	54.8474
1.228	54.4335
1.196	53.2062
1.164	52.2429
1.132	51.605
1.1	51.6327
1.068	50.7284
1.036	50.8777
1.004	50.6025
0.972	50.09
0.94	49.6615
0.908	49.6599
0.876	50.0185
0.844	51.0442
0.812	51.2389
0.795	51.8936
0.787	52.2948
0.779	51.0728
0.771	51.8027
0.763	51.3115
0.755	51.497
0.747	51.0022
0.739	50.6306
0.731	50.5681
0.723	49.7645
0.715	49.295
0.707	49.287
0.699	50.195
0.691	47.9825
0.683	47.9675
0.675	47.6626
0.667	47.1712
0.659	46.7267
0.651	46.1217
0.643	46.1508
0.635	45.1417
0.627	45.3703
0.619	45.4301
0.611	44.3365
0.603	44.2002
0.595	44.526
0.587	44.2312
0.579	42.8604
0.571	41.7996
0.563	41.0281
0.555	38.5093
0.547	37.1064
0.539	35.4716
0.531	34.7083
0.523	32.6682
0.515	31.3143
0.507	29.9711
0.499	28.5889
0.491	27.3358
0.483	26.5911
0.475	25.6128
0.467	24.788
0.459	23.8033
0.451	23.381
0.443	21.9659
0.435	20.2543
0.427	18.7917
0.419	17.1694
0.411	15.9802
0.403	14.9565
