Name: Light yellowish brown loamy sand
Type: Soils
Class: Aridisol
Subclass: Camborthid
Particle Size: see additional information
Sample No.: 89P1772
Owner: JHU
Origin: Kern Co., Ca., China Lake. via USDA Soil Conservation service.
Description: The parent material is alluvium material over eolian.  Light
Measurement: Directional (10 degree) hemispherical reflectance
X Units: Wavelength (micrometers)
Y Units: Reflectance (percent)
wavelength	value
14.9831	0.6787
14.6445	1.0351
14.3209	1.1391
14.0112	1.7842
13.7147	1.976
13.4304	2.2012
13.1577	2.3625
12.8959	2.7942
12.6443	2.5612
12.4023	2.5176
12.1694	2.6019
11.945	2.9967
11.7289	3.3374
11.5203	3.467
11.3191	3.6264
11.1248	3.7846
10.937	3.8544
10.7555	3.8954
10.5799	4.1492
10.4099	4.5237
10.2454	5.0333
10.0859	5.6957
9.9313	6.5797
9.7814	7.2499
9.636	8.5003
9.4948	9.3303
9.3577	9.6052
9.2245	9.0324
9.095	8.1687
8.9691	7.8713
8.8467	8.5067
8.7275	8.5588
8.6116	7.6908
8.4986	8.8354
8.3886	9.2022
8.2814	9.0026
8.1769	7.7264
8.075	5.159
7.9756	3.3756
7.8786	2.3431
7.784	2.0063
7.6916	1.89
7.6014	1.845
7.5133	1.9
7.4272	1.9696
7.343	2.0743
7.2607	2.2187
7.1803	2.3047
7.1016	2.4653
7.0246	2.4877
6.9493	2.613
6.8755	2.6938
6.8034	2.8349
6.7327	3.0817
6.6634	3.1151
6.5956	3.2136
6.5292	3.3448
6.464	3.5565
6.4002	3.4632
6.3376	3.4158
6.2762	3.2292
6.216	2.8927
6.157	2.5661
6.099	2.4165
6.0421	2.484
5.9863	2.8368
5.9315	3.2051
5.8777	3.6924
5.8249	4.3292
5.773	4.6982
5.722	5.0435
5.6719	5.1713
5.6227	5.0681
5.5744	5.1031
5.5268	5.626
5.4801	6.129
5.4341	6.5091
5.3889	6.5283
5.3445	6.5496
5.3008	6.9022
5.2578	7.4471
5.2154	8.2213
5.1738	8.8787
5.1328	9.3308
5.0925	9.8461
5.0528	10.2385
5.0137	10.6255
4.9752	11.262
4.9373	12.1323
4.9	13.2044
4.8632	14.7382
4.827	15.6663
4.7913	16.2363
4.7561	16.8835
4.7215	17.4339
4.6873	17.4161
4.6536	18.3407
4.6205	19.6559
4.5877	20.7202
4.5555	21.4626
4.5237	21.5545
4.4923	21.3665
4.4614	21.9071
4.4309	22.9988
4.4008	24.1554
4.3711	25.6391
4.3418	26.9653
4.3129	27.8408
4.2844	28.4634
4.2563	29.2759
4.2285	30.1419
4.2011	30.5767
4.174	31.2497
4.1473	31.8974
4.1209	32.5037
4.0949	33.1291
4.0692	33.5521
4.0438	33.6148
4.0187	33.3328
3.994	32.8435
3.9695	32.871
3.9453	33.6797
3.9214	34.1495
3.8979	34.0998
3.8746	33.8495
3.8515	33.6352
3.8288	33.6143
3.8063	33.5485
3.7841	33.2622
3.7621	32.732
3.7404	32.1953
3.7189	31.7842
3.6977	31.4709
3.6767	31.1384
3.656	30.683
3.6355	30.0934
3.6152	29.417
3.5951	28.6753
3.5753	27.8723
3.5557	27.0091
3.5363	26.0571
3.5171	24.6338
3.4981	23.2534
3.4793	22.6976
3.4607	22.0426
3.4423	21.0103
3.4241	19.5129
3.4061	18.8176
3.3883	18.5157
3.3707	17.9255
3.3533	17.4839
3.336	16.9221
3.3189	16.183
3.302	15.3364
3.2853	14.5059
3.2687	13.6541
3.2523	12.901
3.2361	12.1581
3.22	11.4508
3.204	10.6996
3.1883	10.0588
3.1727	9.3684
3.1572	8.7854
3.1419	8.2076
3.1268	7.6593
3.1117	7.2477
3.0969	6.8842
3.0821	6.6391
3.0675	6.4286
3.0531	6.3045
3.0388	6.1288
3.0246	5.9737
3.0105	5.8233
2.9966	5.6009
2.9828	5.4596
2.9692	5.2815
2.9556	5.1721
2.9422	5.1273
2.9289	5.106
2.9157	5.1126
2.9027	5.1614
2.8897	5.2194
2.8769	5.2602
2.8642	5.3357
2.8516	5.3293
2.8391	5.2403
2.8267	5.0785
2.8144	4.8438
2.8022	4.5855
2.7902	4.423
2.7782	4.1623
2.7664	3.7554
2.7546	3.7407
2.7429	4.4588
2.7314	5.6282
2.7199	6.9531
2.7085	7.9563
2.6973	10.975
2.6861	21.9379
2.675	27.7041
2.664	30.7981
2.6531	34.2935
2.6423	36.1442
2.6315	35.991
2.6209	36.8952
2.6103	37.7901
2.5999	38.0577
2.5895	38.2787
2.5792	39.0412
2.569	39.5021
2.5588	39.953
2.5487	40.4754
2.5388	40.9301
2.5289	41.2436
2.519	41.5555
2.5093	41.8562
2.4996	42.1423
2.49	42.48
2.4805	42.8577
2.471	43.1988
2.4616	43.5848
2.4523	43.8936
2.4431	44.2299
2.4339	44.6909
2.4248	45.2096
2.4157	45.57
2.4068	45.8111
2.3979	45.9749
2.389	46.0794
2.3802	46.4505
2.3715	47.0205
2.3629	47.2249
2.3543	47.2092
2.3458	47.2916
2.3373	47.5313
2.3289	47.8484
2.3206	48.1316
2.3123	48.3031
2.3041	48.7507
2.2959	49.2177
2.2878	49.9418
2.2798	50.7918
2.2718	51.2896
2.2638	51.4629
2.2559	51.2891
2.2481	51.183
2.2403	51.2685
2.2326	51.3926
2.225	51.277
2.2173	50.7875
2.2098	49.6108
2.2023	50.2291
2.1948	51.1764
2.1874	51.928
2.18	52.5755
2.1727	53.0299
2.1655	53.3612
2.1583	53.7768
2.1511	54.2052
2.144	54.6531
2.1369	54.82
2.1299	54.9555
2.1229	54.9368
2.116	54.9912
2.1091	55.0197
2.1023	55.0881
2.0955	55.1066
2.0887	55.1802
2.082	55.144
2.06	54.2909
2.028	54.0611
1.996	52.3109
1.964	49.5193
1.932	47.2945
1.9	44.3037
1.868	54.9815
1.836	57.2422
1.804	56.8709
1.772	57.0247
1.74	56.7919
1.708	56.5686
1.676	55.8749
1.644	55.5731
1.612	55.2689
1.58	54.7272
1.548	53.5419
1.516	53.3023
1.484	52.5167
1.452	50.5948
1.42	48.44
1.388	48.9063
1.356	49.7213
1.324	49.3897
1.292	48.9317
1.26	48.3201
1.228	47.2081
1.196	45.7647
1.164	44.9379
1.132	44.5518
1.1	44.422
1.068	43.6296
1.036	42.9869
1.004	42.7323
0.972	41.7327
0.94	41.1419
0.908	40.7595
0.876	40.6503
0.844	41.2812
0.812	40.644
0.795	40.6031
0.787	40.712
0.779	39.5972
0.771	40.3264
0.763	39.6117
0.755	39.2491
0.747	38.9294
0.739	38.7127
0.731	38.2673
0.723	37.4755
0.715	37.4784
0.707	36.802
0.699	37.7324
0.691	35.9348
0.683	35.6166
0.675	35.5912
0.667	34.5711
0.659	34.1855
0.651	34.282
0.643	33.4102
0.635	32.8093
0.627	32.4758
0.619	31.9472
0.611	31.5324
0.603	31.1512
0.595	30.3309
0.587	30.1765
0.579	28.9384
0.571	27.9438
0.563	26.8777
0.555	24.7377
0.547	23.7536
0.539	22.3074
0.531	21.6923
0.523	20.1396
0.515	19.2814
0.507	18.3414
0.499	17.1546
0.491	16.1766
0.483	15.3661
0.475	14.4686
0.467	13.807
0.459	12.9391
0.451	12.3622
0.443	11.3503
0.435	10.2448
0.427	9.1451
0.419	8.0046
0.411	7.0195
0.403	6.4265
