Name: Dark yellowish brown silty clay
Type: Soils
Class: Aridisol
Subclass: Salorthid
Particle Size: see additional information
Sample No.: 89P1805
Owner: JHU
Origin: San Bernadino Co., Ca.,China Lake via USDA Soil Conservation
Description: Parent material: alluvium over lacustrine material.
Measurement: Directional (10 degree) hemispherical reflectance
X Units: Wavelength (micrometers)
Y Units: Reflectance (percent)
wavelength	value
14.983	0.8277
14.645	0.2775
14.321	0.9873
14.011	1.0124
13.715	1.1495
13.43	1.2355
13.158	1.276
12.896	1.3323
12.644	1.3887
12.402	1.5189
12.169	1.692
11.945	1.7849
11.729	2.0222
11.52	2.1204
11.319	2.0136
11.125	2.0234
10.937	1.8363
10.755	1.8694
10.58	2.038
10.41	2.1027
10.245	2.2424
10.086	2.3869
9.9313	2.6021
9.7814	2.7329
9.636	3.0537
9.4948	3.1307
9.3577	3.0327
9.2245	2.6218
9.095	2.1827
8.9691	2.1247
8.8467	2.1238
8.7275	2.0286
8.6116	1.913
8.4986	2.1152
8.3886	2.407
8.2814	2.689
8.1769	2.7994
8.075	2.7468
7.9756	2.7805
7.8786	2.9285
7.784	3.1757
7.6916	3.4525
7.6014	3.5226
7.5133	3.5013
7.4272	3.4144
7.343	3.0078
7.2607	2.6298
7.1803	2.2457
7.1016	2.3985
7.0246	2.326
6.9493	2.1804
6.8755	2.1316
6.8034	2.0717
6.7327	2.1328
6.6634	2.2566
6.5956	2.6497
6.5292	3.111
6.464	3.484
6.4002	3.4961
6.3376	3.1537
6.2762	2.8226
6.216	2.2348
6.157	1.4981
6.099	1.5192
6.0421	1.882
5.9863	2.4018
5.9315	2.7755
5.8777	3.3824
5.8249	3.8843
5.773	4.1987
5.722	4.4405
5.6719	4.6179
5.6227	4.7553
5.5744	4.1163
5.5268	5.0134
5.4801	5.3899
5.4341	5.7423
5.3889	6.0952
5.3445	6.3696
5.3008	6.7542
5.2578	7.1206
5.2154	7.5296
5.1738	7.9468
5.1328	8.4046
5.0925	8.8863
5.0528	9.3822
5.0137	9.8108
4.9752	10.248
4.9373	10.613
4.9	11.024
4.8632	11.506
4.827	11.878
4.7913	12.128
4.7561	12.365
4.7215	12.629
4.6873	12.824
4.6536	13.301
4.6205	13.959
4.5877	14.529
4.5555	15.011
4.5237	15.374
4.4923	15.587
4.4614	15.918
4.4309	16.299
4.4008	16.703
4.3711	17.164
4.3418	17.604
4.3129	17.983
4.2844	18.32
4.2563	18.647
4.2285	18.984
4.2011	19.231
4.174	19.444
4.1473	19.576
4.1209	19.608
4.0949	19.434
4.0692	19.109
4.0438	18.368
4.0187	17.09
3.994	14.554
3.9695	13.827
3.9453	15.738
3.9214	16.901
3.8979	17.163
3.8746	17.198
3.8515	17.16
3.8288	17.401
3.8063	17.769
3.7841	17.867
3.7621	17.644
3.7404	17.309
3.7189	16.971
3.6977	16.604
3.6767	16.236
3.656	15.859
3.6355	15.466
3.6152	15.052
3.5951	14.597
3.5753	14.11
3.5557	13.612
3.5363	13.057
3.5171	12.267
3.4981	11.56
3.4793	11.051
3.4607	11.133
3.4423	10.904
3.4241	10.462
3.4061	10.16
3.3883	9.996
3.3707	9.6929
3.3533	9.3987
3.336	9.35
3.3189	9.1577
3.302	8.8709
3.2853	8.6116
3.2687	8.3077
3.2523	8.0418
3.2361	7.7742
3.22	7.494
3.204	7.2487
3.1883	6.9607
3.1727	6.744
3.1572	6.4205
3.1419	6.2238
3.1268	5.9701
3.1117	5.7371
3.0969	5.564
3.0821	5.3947
3.0675	5.2426
3.0531	5.1477
3.0388	5.0525
3.0246	4.9719
3.0105	4.7851
2.9966	4.6177
2.9828	4.4559
2.9692	4.3091
2.9556	4.186
2.9422	4.0612
2.9289	3.9657
2.9157	3.9252
2.9027	3.8703
2.8897	3.8407
2.8769	3.8409
2.8642	3.8305
2.8516	3.6669
2.8391	3.5241
2.8267	3.2778
2.8144	3.0286
2.8022	2.8664
2.7902	2.6817
2.7782	2.4655
2.7664	2.2595
2.7546	2.2673
2.7429	2.7731
2.7314	3.4613
2.7199	4.3295
2.7085	4.9686
2.6973	7.342
2.6861	14.393
2.675	19.611
2.664	22.87
2.6531	25.516
2.6423	27.237
2.6315	28.024
2.6209	28.969
2.6103	29.774
2.5999	30.231
2.5895	30.597
2.5792	31.015
2.569	31.177
2.5588	31.168
2.5487	31.048
2.5388	31.016
2.5289	31.272
2.519	31.529
2.5093	31.798
2.4996	32.033
2.49	32.295
2.4805	32.756
2.471	33.3
2.4616	33.905
2.4523	34.569
2.4431	35.402
2.4339	36.39
2.4248	37.382
2.4157	38.191
2.4068	38.792
2.3979	39.078
2.389	39.246
2.3802	39.524
2.3715	39.943
2.3629	40.285
2.3543	40.589
2.3458	40.947
2.3373	41.397
2.3289	41.879
2.3206	42.157
2.3123	42.121
2.3041	42.551
2.2959	43.084
2.2878	43.951
2.2798	44.868
2.2718	45.366
2.2638	45.282
2.2559	44.869
2.2481	44.525
2.2403	44.382
2.2326	44.302
2.225	43.838
2.2173	43.274
2.2098	42.249
2.2023	43.725
2.1948	44.965
2.1874	45.994
2.18	46.885
2.1727	47.598
2.1655	47.951
2.1583	48.409
2.1511	48.867
2.144	49.256
2.1369	49.495
2.1299	49.59
2.1229	49.672
2.116	49.688
2.1091	49.763
2.1023	49.932
2.0955	50.002
2.0887	50.132
2.082	50.285
2.06	49.851
2.028	47.716
1.996	44.055
1.964	38.955
1.932	35.185
1.9	32.259
1.868	51.879
1.836	58.105
1.804	58.904
1.772	58.374
1.74	59.599
1.708	60.721
1.676	59.965
1.644	60.578
1.612	59.521
1.58	58.702
1.548	58.277
1.516	57.249
1.484	54.577
1.452	52.429
1.42	49.832
1.388	51.523
1.356	56.619
1.324	55.834
1.292	55.6
1.26	54.571
1.228	54.203
1.196	54.322
1.164	52.664
1.132	51.435
1.1	50.996
1.068	51.03
1.036	49.887
1.004	49.711
0.972	48.523
0.94	48.361
0.908	47.841
0.876	47.607
0.844	48.467
0.812	48.845
0.795	49.44
0.787	50.059
0.779	49.971
0.771	49.203
0.763	49.092
0.755	48.712
0.747	47.988
0.739	47.564
0.731	47.102
0.723	46.611
0.715	46.148
0.707	45.773
0.699	46.556
0.691	44.391
0.683	43.971
0.675	44.001
0.667	42.616
0.659	42.18
0.651	41.646
0.643	41.19
0.635	40.977
0.627	39.651
0.619	39.606
0.611	39.504
0.603	38.862
0.595	38.384
0.587	37.377
0.579	36.632
0.571	34.284
0.563	32.733
0.555	30.419
0.547	29.223
0.539	27.588
0.531	26.423
0.523	25.015
0.515	23.121
0.507	21.456
0.499	20.685
0.491	19.231
0.483	18.566
0.475	17.873
0.467	16.863
0.459	16.076
0.451	15.195
0.443	13.881
0.435	12.713
0.427	11.089
0.419	9.815
0.411	8.6532
0.403	7.5155
