Name: Very dark grayish brown loamy sand
Type: Soils
Class: Aridisol
Subclass: Torripsamment
Particle Size: see additional information
Sample No.: 90P0142
Owner: JHU
Origin: Kit Carson Co., Co. via USDA Soil Conservation service.
Description: The parent material is eolian from sandstone material from a
Measurement: Directional (10 degree) hemispherical reflectance
X Units: Wavelength (micrometers)
Y Units: Reflectance (percent)
wavelength	value
14.9831	3.147
14.6445	2.506
14.3209	1.6151
14.0112	2.327
13.7147	2.3873
13.4304	2.5465
13.1577	2.8534
12.8959	3.6001
12.6443	3.1314
12.4023	2.5794
12.1694	1.9061
11.945	2.317
11.7289	2.6796
11.5203	2.8645
11.3191	3.0533
11.1248	3.2361
10.937	3.3723
10.7555	3.4042
10.5799	3.6098
10.4099	3.9967
10.2454	4.5668
10.0859	5.3729
9.9313	6.2519
9.7814	6.7961
9.636	7.7192
9.4948	8.7856
9.3577	10.6783
9.2245	11.2092
9.095	10.5852
8.9691	10.2617
8.8467	10.629
8.7275	10.2676
8.6116	8.8145
8.4986	10.8159
8.3886	11.2627
8.2814	11.7851
8.1769	11.4401
8.075	7.8557
7.9756	5.0461
7.8786	3.09
7.784	2.2599
7.6916	1.7711
7.6014	1.4379
7.5133	1.2466
7.4272	1.1796
7.343	1.123
7.2607	1.122
7.1803	1.123
7.1016	1.1829
7.0246	1.1748
6.9493	1.1857
6.8755	1.1872
6.8034	1.2613
6.7327	1.3979
6.6634	1.3944
6.5956	1.3525
6.5292	1.4001
6.464	1.4332
6.4002	1.3721
6.3376	1.442
6.2762	1.4266
6.216	1.3885
6.157	1.338
6.099	1.3283
6.0421	1.2698
5.9863	1.3759
5.9315	1.4377
5.8777	1.5223
5.8249	1.7444
5.773	1.9158
5.722	2.0866
5.6719	2.2183
5.6227	2.2197
5.5744	2.236
5.5268	2.46
5.4801	2.5723
5.4341	2.6407
5.3889	2.578
5.3445	2.4458
5.3008	2.5716
5.2578	2.753
5.2154	2.9976
5.1738	3.1631
5.1328	3.2636
5.0925	3.3633
5.0528	3.4279
5.0137	3.5077
4.9752	3.6912
4.9373	3.8769
4.9	4.2887
4.8632	5.3648
4.827	6.31
4.7913	7.0578
4.7561	7.7233
4.7215	8.0468
4.6873	7.1819
4.6536	8.1067
4.6205	9.6502
4.5877	10.4256
4.5555	10.4644
4.5237	9.1733
4.4923	7.7635
4.4614	7.7827
4.4309	8.63
4.4008	9.6938
4.3711	11.4195
4.3418	12.933
4.3129	13.2453
4.2844	12.9886
4.2563	13.7607
4.2285	14.5564
4.2011	15.3009
4.174	16.081
4.1473	16.8298
4.1209	17.5897
4.0949	18.4558
4.0692	19.0776
4.0438	19.1378
4.0187	18.9618
3.994	19.0322
3.9695	19.3926
3.9453	19.9065
3.9214	20.1362
3.8979	19.8603
3.8746	19.3213
3.8515	19.0026
3.8288	18.9727
3.8063	18.9438
3.7841	18.5775
3.7621	17.9646
3.7404	17.4881
3.7189	17.3835
3.6977	17.5135
3.6767	17.621
3.656	17.4843
3.6355	17.1331
3.6152	16.6823
3.5951	16.2065
3.5753	15.6864
3.5557	15.1503
3.5363	14.5251
3.5171	13.2643
3.4981	12.2514
3.4793	12.0797
3.4607	11.5817
3.4423	10.8341
3.4241	9.5415
3.4061	9.4243
3.3883	9.5271
3.3707	9.3443
3.3533	9.3689
3.336	9.1472
3.3189	8.775
3.302	8.2895
3.2853	7.7787
3.2687	7.3482
3.2523	6.9053
3.2361	6.5276
3.22	6.1826
3.204	5.801
3.1883	5.4982
3.1727	5.1903
3.1572	4.8682
3.1419	4.6094
3.1268	4.311
3.1117	4.1457
3.0969	3.9785
3.0821	3.8483
3.0675	3.7656
3.0531	3.6581
3.0388	3.5513
3.0246	3.4665
3.0105	3.4284
2.9966	3.3711
2.9828	3.2614
2.9692	3.1774
2.9556	3.1489
2.9422	3.1629
2.9289	3.183
2.9157	3.1596
2.9027	3.2224
2.8897	3.301
2.8769	3.3673
2.8642	3.4637
2.8516	3.5435
2.8391	3.6268
2.8267	3.6839
2.8144	3.7149
2.8022	3.6365
2.7902	3.5406
2.7782	3.3985
2.7664	3.0949
2.7546	3.0523
2.7429	3.566
2.7314	4.6442
2.7199	5.985
2.7085	6.7971
2.6973	9.3893
2.6861	18.5353
2.675	23.0275
2.664	25.574
2.6531	29.1021
2.6423	30.855
2.6315	30.1661
2.6209	30.9542
2.6103	31.7442
2.5999	31.8868
2.5895	31.9877
2.5792	32.6628
2.569	33.0479
2.5588	33.3827
2.5487	33.7787
2.5388	34.2471
2.5289	34.4179
2.519	34.6552
2.5093	34.8112
2.4996	35.0362
2.49	35.2825
2.4805	35.6157
2.471	35.925
2.4616	36.2444
2.4523	36.598
2.4431	36.9795
2.4339	37.451
2.4248	38.0106
2.4157	38.5152
2.4068	38.8875
2.3979	39.1843
2.389	39.3114
2.3802	39.535
2.3715	39.8142
2.3629	40.0202
2.3543	40.0986
2.3458	40.2689
2.3373	40.6944
2.3289	41.0511
2.3206	41.3632
2.3123	41.4994
2.3041	41.7314
2.2959	41.9382
2.2878	42.198
2.2798	42.4071
2.2718	42.5489
2.2638	42.5326
2.2559	42.4563
2.2481	42.3585
2.2403	42.3429
2.2326	42.2726
2.225	41.995
2.2173	41.4906
2.2098	40.5997
2.2023	40.8782
2.1948	41.4011
2.1874	42.0348
2.18	42.5918
2.1727	42.9918
2.1655	43.2246
2.1583	43.5225
2.1511	43.7503
2.144	44.0139
2.1369	44.1088
2.1299	44.1735
2.1229	44.1972
2.116	44.1032
2.1091	44.1221
2.1023	44.1069
2.0955	44.0736
2.0887	43.9935
2.082	43.9968
2.06	43.868
2.028	43.7303
1.996	42.5642
1.964	40.1395
1.932	38.4236
1.9	37.0364
1.868	44.9194
1.836	46.0326
1.804	46.1684
1.772	45.7292
1.74	46.0202
1.708	45.919
1.676	45.5137
1.644	45.7721
1.612	45.7817
1.58	45.2556
1.548	44.4499
1.516	44.3517
1.484	43.1761
1.452	42.5496
1.42	41.748
1.388	41.449
1.356	42.174
1.324	42.4832
1.292	42.3688
1.26	41.1023
1.228	40.509
1.196	40.7494
1.164	39.8309
1.132	38.6946
1.1	38.0634
1.068	37.2683
1.036	36.4055
1.004	35.5902
0.972	34.2179
0.94	33.1082
0.908	31.9869
0.876	30.789
0.844	29.8796
0.812	28.5431
0.795	27.3318
0.787	27.253
0.779	26.5257
0.771	26.3544
0.763	26.0377
0.755	25.6005
0.747	24.9804
0.739	24.6401
0.731	24.0551
0.723	23.2792
0.715	22.8784
0.707	22.3857
0.699	22.8305
0.691	21.5093
0.683	21.2526
0.675	20.4953
0.667	19.7045
0.659	19.3527
0.651	18.8957
0.643	18.2707
0.635	17.5771
0.627	17.0449
0.619	16.8045
0.611	15.8444
0.603	15.5559
0.595	15.5855
0.587	14.909
0.579	14.3345
0.571	13.979
0.563	13.0018
0.555	12.0223
0.547	11.3274
0.539	10.7093
0.531	10.498
0.523	9.9477
0.515	9.33
0.507	8.7918
0.499	8.1937
0.491	7.7468
0.483	7.4017
0.475	6.8581
0.467	6.4816
0.459	5.9545
0.451	5.6642
0.443	5.313
0.435	4.5717
0.427	4.2454
0.419	3.3455
0.411	3.1874
0.403	2.2853
