Name: Very dark grayish brown silty loam
Type: Soils
Class: Mollisol
Subclass: Argiustoll
Particle Size: see additional information
Sample No.: 90P128s
Owner: JHU
Origin: Kit Carson Co., Co. via USDA Soil Conservation service.
Description: The parent material is loess from uplands.  Very dark grayish
Measurement: Directional (10 degree) hemispherical reflectance
X Units: Wavelength (micrometers)
Y Units: Reflectance (percent)
wavelength	value
14.9831	0.7988
14.6445	0
14.3209	0.6962
14.0112	1.5519
13.7147	1.7586
13.4304	1.8869
13.1577	1.9291
12.8959	2.0662
12.6443	1.8005
12.4023	1.6238
12.1694	1.8041
11.945	2.3106
11.7289	2.704
11.5203	2.7182
11.3191	2.7191
11.1248	2.6822
10.937	2.6163
10.7555	2.5642
10.5799	2.6701
10.4099	2.9102
10.2454	3.2792
10.0859	3.8094
9.9313	4.3844
9.7814	4.7657
9.636	5.4939
9.4948	5.9325
9.3577	6.5193
9.2245	6.3412
9.095	5.8839
8.9691	5.6225
8.8467	5.7627
8.7275	5.5595
8.6116	4.7967
8.4986	5.4993
8.3886	5.6379
8.2814	5.7648
8.1769	5.4697
8.075	3.9868
7.9756	2.9687
7.8786	2.2564
7.784	1.9599
7.6916	1.8905
7.6014	1.7593
7.5133	1.7645
7.4272	1.8119
7.343	1.832
7.2607	1.9168
7.1803	2.0295
7.1016	2.1285
7.0246	2.1659
6.9493	2.371
6.8755	2.5678
6.8034	2.8764
6.7327	3.18
6.6634	3.2702
6.5956	3.1035
6.5292	3.0833
6.464	3.3192
6.4002	3.1729
6.3376	2.8854
6.2762	2.4866
6.216	2.1003
6.157	1.8607
6.099	1.8933
6.0421	2.047
5.9863	2.3563
5.9315	2.7717
5.8777	3.763
5.8249	5.0042
5.773	6.0421
5.722	7.1109
5.6719	7.6181
5.6227	6.9529
5.5744	6.8847
5.5268	7.7612
5.4801	8.8254
5.4341	9.0963
5.3889	7.3029
5.3445	6.3438
5.3008	6.8845
5.2578	8.2931
5.2154	10.6913
5.1738	11.5175
5.1328	11.5763
5.0925	11.5964
5.0528	11.2566
5.0137	11.3257
4.9752	12.4357
4.9373	14.3293
4.9	16.7905
4.8632	19.3405
4.827	20.4417
4.7913	20.997
4.7561	21.4709
4.7215	21.7745
4.6873	21.5552
4.6536	22.1622
4.6205	22.8991
4.5877	23.4173
4.5555	23.7439
4.5237	23.6418
4.4923	23.2219
4.4614	23.3458
4.4309	24.0576
4.4008	24.7619
4.3711	25.5448
4.3418	26.1618
4.3129	26.543
4.2844	26.6598
4.2563	27.0586
4.2285	27.4796
4.2011	27.7948
4.174	28.1079
4.1473	28.3781
4.1209	28.5889
4.0949	28.7419
4.0692	28.8558
4.0438	28.8314
4.0187	28.7056
3.994	28.5507
3.9695	28.412
3.9453	28.3052
3.9214	28.1098
3.8979	27.8017
3.8746	27.3863
3.8515	26.9646
3.8288	26.4822
3.8063	25.9711
3.7841	25.3772
3.7621	24.7233
3.7404	24.0584
3.7189	23.4346
3.6977	22.8122
3.6767	22.1932
3.656	21.5351
3.6355	20.8658
3.6152	20.1864
3.5951	19.4525
3.5753	18.6473
3.5557	17.7955
3.5363	16.8419
3.5171	15.3118
3.4981	14.1981
3.4793	13.7571
3.4607	13.1011
3.4423	12.2706
3.4241	10.9073
3.4061	10.7844
3.3883	10.7673
3.3707	10.5835
3.3533	10.4862
3.336	10.2037
3.3189	9.7211
3.302	9.1908
3.2853	8.5858
3.2687	8.0659
3.2523	7.5383
3.2361	7.1372
3.22	6.7021
3.204	6.2849
3.1883	5.873
3.1727	5.4844
3.1572	5.0724
3.1419	4.7974
3.1268	4.4398
3.1117	4.1753
3.0969	3.9861
3.0821	3.8196
3.0675	3.6725
3.0531	3.5728
3.0388	3.5224
3.0246	3.3725
3.0105	3.3415
2.9966	3.2096
2.9828	3.138
2.9692	3.0739
2.9556	2.9988
2.9422	2.9503
2.9289	3.0054
2.9157	2.9756
2.9027	3.0024
2.8897	3.1274
2.8769	3.1793
2.8642	3.255
2.8516	3.3258
2.8391	3.4165
2.8267	3.3983
2.8144	3.3614
2.8022	3.2273
2.7902	3.0836
2.7782	2.8685
2.7664	2.5974
2.7546	2.6095
2.7429	3.1411
2.7314	4.1611
2.7199	5.9498
2.7085	7.0867
2.6973	10.5693
2.6861	20.7647
2.675	26.3112
2.664	29.3654
2.6531	31.9768
2.6423	33.468
2.6315	33.759
2.6209	34.5801
2.6103	35.3796
2.5999	35.9522
2.5895	36.0903
2.5792	36.2281
2.569	36.4493
2.5588	36.6276
2.5487	36.8078
2.5388	37.0198
2.5289	37.1514
2.519	37.2649
2.5093	37.4546
2.4996	37.6741
2.49	37.8931
2.4805	38.2607
2.471	38.6216
2.4616	38.9763
2.4523	39.3702
2.4431	39.7955
2.4339	40.3293
2.4248	40.9592
2.4157	41.4629
2.4068	41.9472
2.3979	42.1632
2.389	42.3746
2.3802	42.5686
2.3715	42.8459
2.3629	43.0531
2.3543	43.1123
2.3458	43.3361
2.3373	43.7107
2.3289	44.038
2.3206	44.3715
2.3123	44.4385
2.3041	44.7428
2.2959	44.9682
2.2878	45.1399
2.2798	45.3772
2.2718	45.4383
2.2638	45.3573
2.2559	45.2868
2.2481	45.198
2.2403	45.1293
2.2326	45.0973
2.225	44.7968
2.2173	44.4842
2.2098	43.7823
2.2023	44.3419
2.1948	45.0002
2.1874	45.692
2.18	46.1511
2.1727	46.5398
2.1655	46.7612
2.1583	47.0401
2.1511	47.3331
2.144	47.6073
2.1369	47.5772
2.1299	47.6687
2.1229	47.6646
2.116	47.5912
2.1091	47.6582
2.1023	47.6322
2.0955	47.5936
2.0887	47.631
2.082	47.4749
2.06	48.0563
2.028	47.4985
1.996	45.9989
1.964	43.4605
1.932	41.3594
1.9	39.259
1.868	48.5784
1.836	50.9552
1.804	50.389
1.772	50.352
1.74	50.2286
1.708	49.9235
1.676	49.6174
1.644	49.4444
1.612	49.4539
1.58	49.2208
1.548	48.4303
1.516	47.8916
1.484	46.6948
1.452	45.8598
1.42	44.399
1.388	44.582
1.356	45.97
1.324	45.885
1.292	45.9478
1.26	44.7489
1.228	44.0284
1.196	43.044
1.164	42.1444
1.132	41.5071
1.1	40.7317
1.068	39.02
1.036	38.9631
1.004	38.2037
0.972	37.0522
0.94	35.6836
0.908	34.6656
0.876	33.5333
0.844	32.9231
0.812	31.4741
0.795	30.154
0.787	30.0586
0.779	29.2469
0.771	28.9089
0.763	28.7227
0.755	28.1428
0.747	27.5409
0.739	27.1682
0.731	26.8269
0.723	26.1784
0.715	25.6464
0.707	25.263
0.699	25.5967
0.691	24.3263
0.683	23.7986
0.675	23.4321
0.667	22.8911
0.659	22.392
0.651	22.0806
0.643	21.8376
0.635	20.8947
0.627	20.7342
0.619	20.2202
0.611	19.5529
0.603	19.3681
0.595	19.3288
0.587	18.6536
0.579	18.3447
0.571	18.0425
0.563	17.4476
0.555	16.2462
0.547	15.7929
0.539	15.0375
0.531	14.9573
0.523	14.1465
0.515	13.783
0.507	13.2474
0.499	12.8982
0.491	12.3243
0.483	12.0994
0.475	11.6798
0.467	11.177
0.459	10.6664
0.451	10.3543
0.443	10.0046
0.435	9.1241
0.427	8.7917
0.419	8.2817
0.411	7.8706
0.403	7.0827
