Name: Very dark grayish brown loam
Type: Soils
Class: Mollisol
Subclass: Paleustoll
Particle Size: see additional information
Sample No.: 90P186s
Owner: JHU
Origin: Kit Carson Co., Co. via USDA Soil Conservation service.
Description: The parent material is eolian from upland plains.  Very dark
Measurement: Directional (10 degree) hemispherical reflectance
X Units: Wavelength (micrometers)
Y Units: Reflectance (percent)
wavelength	value
14.9831	0.4028
14.6445	0.489
14.3209	0.7903
14.0112	1.5568
13.7147	1.8585
13.4304	2.0333
13.1577	2.0823
12.8959	2.2216
12.6443	1.9386
12.4023	1.7079
12.1694	1.8668
11.945	2.3513
11.7289	2.8027
11.5203	2.847
11.3191	2.8726
11.1248	2.8749
10.937	2.7632
10.7555	2.7648
10.5799	2.8941
10.4099	3.0836
10.2454	3.4582
10.0859	4.0027
9.9313	4.656
9.7814	4.9814
9.636	5.7182
9.4948	6.1875
9.3577	6.9247
9.2245	6.9484
9.095	6.525
8.9691	6.2976
8.8467	6.4594
8.7275	6.2131
8.6116	5.3068
8.4986	6.0836
8.3886	6.1946
8.2814	6.3561
8.1769	6.0445
8.075	4.3711
7.9756	3.2768
7.8786	2.4373
7.784	2.0757
7.6916	1.9746
7.6014	1.8462
7.5133	1.8493
7.4272	1.8341
7.343	1.842
7.2607	1.9004
7.1803	2.0127
7.1016	2.1396
7.0246	2.1635
6.9493	2.3637
6.8755	2.5211
6.8034	2.7786
6.7327	3.0279
6.6634	3.0277
6.5956	2.8721
6.5292	2.9072
6.464	3.117
6.4002	3.0059
6.3376	2.8167
6.2762	2.457
6.216	2.0944
6.157	1.921
6.099	1.9293
6.0421	2.0037
5.9863	2.3457
5.9315	2.6635
5.8777	3.4582
5.8249	4.4583
5.773	5.3395
5.722	6.1889
5.6719	6.6455
5.6227	6.0831
5.5744	6.0416
5.5268	6.7985
5.4801	7.6489
5.4341	7.8902
5.3889	6.5063
5.3445	5.6241
5.3008	6.0696
5.2578	7.2596
5.2154	9.1759
5.1738	9.8837
5.1328	9.9482
5.0925	9.9875
5.0528	9.7094
5.0137	9.7767
4.9752	10.6835
4.9373	12.2479
4.9	14.3162
4.8632	16.6901
4.827	17.7936
4.7913	18.3968
4.7561	18.8939
4.7215	19.201
4.6873	18.8988
4.6536	19.5825
4.6205	20.4308
4.5877	20.9771
4.5555	21.3021
4.5237	21.1214
4.4923	20.5163
4.4614	20.6447
4.4309	21.3513
4.4008	22.0911
4.3711	22.9801
4.3418	23.6771
4.3129	24.0008
4.2844	24.0295
4.2563	24.4505
4.2285	24.877
4.2011	25.1723
4.174	25.4634
4.1473	25.6993
4.1209	25.9091
4.0949	26.0862
4.0692	26.2022
4.0438	26.1312
4.0187	26.0303
3.994	25.9043
3.9695	25.8447
3.9453	25.7525
3.9214	25.5332
3.8979	25.2472
3.8746	24.8747
3.8515	24.4825
3.8288	24.0636
3.8063	23.6363
3.7841	23.0891
3.7621	22.476
3.7404	21.9081
3.7189	21.3551
3.6977	20.8365
3.6767	20.2655
3.656	19.7047
3.6355	19.107
3.6152	18.4359
3.5951	17.7598
3.5753	17.0415
3.5557	16.3164
3.5363	15.429
3.5171	14.1602
3.4981	13.2266
3.4793	12.7814
3.4607	12.1534
3.4423	11.4285
3.4241	10.2428
3.4061	10.0945
3.3883	10.0611
3.3707	9.8567
3.3533	9.7156
3.336	9.4246
3.3189	9.0689
3.302	8.528
3.2853	8.0979
3.2687	7.5895
3.2523	7.1793
3.2361	6.7298
3.22	6.3855
3.204	6.0461
3.1883	5.6739
3.1727	5.3589
3.1572	5.0075
3.1419	4.7228
3.1268	4.4192
3.1117	4.19
3.0969	3.9787
3.0821	3.8689
3.0675	3.7699
3.0531	3.6377
3.0388	3.5605
3.0246	3.453
3.0105	3.3827
2.9966	3.3218
2.9828	3.2458
2.9692	3.1691
2.9556	3.1352
2.9422	3.0838
2.9289	3.1054
2.9157	3.1335
2.9027	3.1823
2.8897	3.2297
2.8769	3.2929
2.8642	3.3467
2.8516	3.4653
2.8391	3.5525
2.8267	3.601
2.8144	3.5323
2.8022	3.4641
2.7902	3.3462
2.7782	3.0772
2.7664	2.7812
2.7546	2.7347
2.7429	3.2771
2.7314	4.1251
2.7199	5.3838
2.7085	6.0442
2.6973	8.5855
2.6861	18.1905
2.675	23.8168
2.664	26.8518
2.6531	29.8298
2.6423	31.506
2.6315	31.4648
2.6209	32.3183
2.6103	33.2009
2.5999	33.6065
2.5895	33.7683
2.5792	34.1998
2.569	34.5285
2.5588	34.7904
2.5487	35.1181
2.5388	35.417
2.5289	35.5596
2.519	35.6789
2.5093	35.8989
2.4996	36.145
2.49	36.3368
2.4805	36.7327
2.471	37.0299
2.4616	37.4126
2.4523	37.7863
2.4431	38.1901
2.4339	38.7303
2.4248	39.3048
2.4157	39.8166
2.4068	40.1711
2.3979	40.384
2.389	40.5504
2.3802	40.675
2.3715	40.9935
2.3629	41.2251
2.3543	41.2829
2.3458	41.4913
2.3373	41.861
2.3289	42.2148
2.3206	42.4632
2.3123	42.6074
2.3041	42.8772
2.2959	43.0875
2.2878	43.3264
2.2798	43.4214
2.2718	43.5476
2.2638	43.5578
2.2559	43.4074
2.2481	43.3413
2.2403	43.243
2.2326	43.2127
2.225	42.9908
2.2173	42.493
2.2098	41.493
2.2023	42.0182
2.1948	42.7138
2.1874	43.406
2.18	43.9045
2.1727	44.1889
2.1655	44.5072
2.1583	44.81
2.1511	45.1298
2.144	45.4298
2.1369	45.5458
2.1299	45.6233
2.1229	45.6576
2.116	45.5721
2.1091	45.5735
2.1023	45.6031
2.0955	45.6119
2.0887	45.5648
2.082	45.5198
2.06	45.7677
2.028	45.2863
1.996	44.1816
1.964	41.7785
1.932	39.978
1.9	37.421
1.868	46.178
1.836	48.2331
1.804	47.8557
1.772	47.8675
1.74	47.9485
1.708	47.9415
1.676	47.1329
1.644	47.1108
1.612	47.1204
1.58	46.9578
1.548	45.8012
1.516	45.4234
1.484	44.2836
1.452	43.4358
1.42	42.4425
1.388	41.9965
1.356	43.4745
1.324	42.9632
1.292	43.3401
1.26	42.4793
1.228	41.9152
1.196	41.7021
1.164	40.6525
1.132	39.5852
1.1	38.5333
1.068	37.3969
1.036	36.3009
1.004	36.2331
0.972	34.4075
0.94	33.4392
0.908	32.0958
0.876	31.0687
0.844	30.1057
0.812	28.5137
0.795	27.7772
0.787	27.4714
0.779	26.5863
0.771	26.3328
0.763	25.3971
0.755	25.3428
0.747	24.5861
0.739	24.1461
0.731	23.564
0.723	22.9089
0.715	22.3902
0.707	21.9091
0.699	21.9247
0.691	20.3176
0.683	20.0692
0.675	19.4352
0.667	18.6478
0.659	17.7941
0.651	17.4567
0.643	16.7048
0.635	15.8804
0.627	15.4823
0.619	15.1217
0.611	14.2705
0.603	13.4824
0.595	13.5379
0.587	12.5953
0.579	12.0209
0.571	11.5212
0.563	10.804
0.555	9.6838
0.547	8.993
0.539	7.8647
0.531	7.6534
0.523	6.7178
0.515	6.0994
0.507	5.4334
0.499	5.0905
0.491	4.2567
0.483	3.9067
0.475	3.3593
0.467	2.8549
0.459	2.2103
0.451	2.034
0.443	1.4223
0.435	0.9374
0.427	0.4753
0.419	0.4314
0.411	0.9742
0.403	0.4965
